<?xml version="1.0" ?>
<!-- Generated by VSimRTI -->
<routes>
	<vType id="default" length="7.5" maxSpeed="50" minGap="2.0" carFollowModel="Krauss" accel="0.80" decel="4.5" sigma="0.5" tau="1"/>
	<route id="11" edges="328458674_1587555351_25038516_1587555298 328458674_25038516_25038515_25038516" />
	<route id="1" edges="370164917_25038523_25038522_2331227949 370164917_25038523_25038522_1587555398 370164915_25038522_25038521_25038522 370164915_25038522_25038521_1587555381 370164915_25038522_25038521_2331227907 370164918_25038521_25038604_25038521 370164918_25038521_25038604_2368304061" />
	<route id="2" edges="4217297_1587555228_25038515_1587555228 4217297_25038515_25038521_25038515 4217297_25038515_25038521_3738891767 4217297_25038515_25038521_3738891771 370164918_25038521_25038604_25038521 370164918_25038521_25038604_2368304061" />
	<route id="3" edges="4217297_1587555228_25038515_1587555228 4217297_25038515_25038521_25038515 4217297_25038515_25038521_3738891767 4217297_25038515_25038521_3738891771 370164933_25038521_1345381151_25038521 370164933_25038521_1345381151_3738891778 370164933_25038521_1345381151_1345381153 388808400_1345381151_1901583832_1345381151" />
	<route id="4" edges="388808400_1345381151_1901583832_1345381151" />
	<route id="5" edges="388808400_1345381151_1901583832_1345381151 119873085_1901583832_25038522_1901583832 119873085_1901583832_25038522_2296638091 119873085_1901583832_25038522_2296638096 119873085_1901583832_25038522_3738891787 119873085_1901583832_25038522_1345380563 119873085_1901583832_25038522_1901583789 4217293_25038522_25038516_25038522 4217293_25038522_25038516_3738891781 4217293_25038522_25038516_3738891775 4217293_25038522_25038516_1587555304 328458674_25038516_25038515_25038516" />
	<route id="6" edges="388808400_1345381151_1901583832_1345381151 119873085_1901583832_25038522_1901583832 119873085_1901583832_25038522_2296638091 119873085_1901583832_25038522_2296638096 119873085_1901583832_25038522_3738891787 119873085_1901583832_25038522_1345380563 119873085_1901583832_25038522_1901583789 4217293_25038522_25038516_25038522 4217293_25038522_25038516_3738891781 4217293_25038522_25038516_3738891775 4217293_25038522_25038516_1587555304 4217293_25038516_1587555241_25038516 4217293_25038516_1587555241_1587555254 220553570_1587555241_2928075527_1587555241" />
	<route id="7" edges="220553570_1587555228_1587555241_1587555228 220553570_1587555228_1587555241_1587555231 220553570_1587555241_2928075527_1587555241" />
	<route id="8" edges="220553570_1587555228_1587555241_1587555228 220553570_1587555228_1587555241_1587555231 220553570_1587555241_2928075527_1587555241" />
	<route id="9" edges="220553570_1587555228_1587555241_1587555228 220553570_1587555228_1587555241_1587555231 4217293_1587555241_25038505_1587555241" />
	<route id="10" edges="328458674_1587555351_25038516_1587555298 4217293_25038516_1587555241_25038516 4217293_25038516_1587555241_1587555254 4217293_1587555241_25038505_1587555241" />
</routes>