<connections>
	<connection from="220553570_1587555228_1587555241_1587555228" to="220553570_1587555228_1587555241_1587555231" />
	<connection from="220553570_1587555228_1587555241_1587555231" to="4217293_1587555241_25038505_1587555241" />
	<connection from="220553570_1587555228_1587555241_1587555231" to="220553570_1587555241_2928075527_1587555241" />
	<connection from="388808400_1345381151_1901583832_1345381151" to="119873085_1901583832_25038522_1901583832" />
	<connection from="388808400_1345381151_1901583832_1345381151" to="388808400_1901583832_142189863_1901583832" />
	<connection from="119873085_1901583832_25038522_1901583832" to="119873085_1901583832_25038522_2296638091" />
	<connection from="119873085_1901583832_25038522_2296638091" to="119873085_1901583832_25038522_2296638096" />
	<connection from="119873085_1901583832_25038522_2296638096" to="119873085_1901583832_25038522_3738891787" />
	<connection from="119873085_1901583832_25038522_3738891787" to="119873085_1901583832_25038522_1345380563" />
	<connection from="119873085_1901583832_25038522_1345380563" to="119873085_1901583832_25038522_1901583789" />
	<connection from="119873085_1901583832_25038522_1901583789" to="4217293_25038522_25038516_25038522" />
	<connection from="4217293_25038516_1587555241_25038516" to="4217293_25038516_1587555241_1587555254" />
	<connection from="4217293_25038516_1587555241_1587555254" to="4217293_1587555241_25038505_1587555241" />
	<connection from="4217293_25038516_1587555241_1587555254" to="220553570_1587555241_2928075527_1587555241" />
	<connection from="4217293_1587555241_25038505_1587555241" to="4217293_1587555241_25038505_1587555227" />
	<connection from="4217293_1587555241_25038505_1587555227" to="4217293_1587555241_25038505_1587555145" />
	<connection from="4217293_1587555241_25038505_1587555145" to="4217293_1587555241_25038505_1587555142" />
	<connection from="4217293_1587555241_25038505_1587555142" to="4217293_1587555241_25038505_1587555129" />
	<connection from="4217293_1587555241_25038505_1587555129" to="4217293_1587555241_25038505_25038496" />
	<connection from="4217293_1587555241_25038505_25038496" to="4217293_1587555241_25038505_1587555126" />
	<connection from="4217293_1587555241_25038505_1587555126" to="4217293_1587555241_25038505_25038493" />
	<connection from="4217293_1587555241_25038505_25038493" to="4217293_1587555241_25038505_1587555112" />
	<connection from="4217293_1587555241_25038505_1587555112" to="4217293_1587555241_25038505_25038489" />
	<connection from="4217293_1587555241_25038505_25038489" to="4217293_1587555241_25038505_25038484" />
	<connection from="4217293_1587555241_25038505_25038484" to="4217293_1587555241_25038505_1587555097" />
	<connection from="388808400_142182060_1345381151_142182060" to="388808400_142182060_1345381151_3738891762" />
	<connection from="388808400_142182060_1345381151_3738891762" to="388808400_142182060_1345381151_2331227892" />
	<connection from="388808400_142182060_1345381151_2331227892" to="388808400_142182060_1345381151_2331227942" />
	<connection from="388808400_142182060_1345381151_2331227942" to="388808400_142182060_1345381151_2296636206" />
	<connection from="388808400_142182060_1345381151_2296636206" to="388808400_142182060_1345381151_2331227986" />
	<connection from="388808400_142182060_1345381151_2331227986" to="388808400_142182060_1345381151_2331227901" />
	<connection from="388808400_142182060_1345381151_2331227901" to="388808400_142182060_1345381151_2296638089" />
	<connection from="388808400_142182060_1345381151_2296638089" to="388808400_142182060_1345381151_2331227955" />
	<connection from="388808400_142182060_1345381151_2331227955" to="388808400_142182060_1345381151_2331227868" />
	<connection from="388808400_142182060_1345381151_2331227868" to="388808400_1345381151_1901583832_1345381151" />
	<connection from="388808400_1901583832_142189863_1901583832" to="388808400_1901583832_142189863_2331228011" />
	<connection from="388808400_1901583832_142189863_2331228011" to="388808400_1901583832_142189863_1587555422" />
	<connection from="388808400_1901583832_142189863_1587555422" to="388808400_1901583832_142189863_1587555440" />
	<connection from="388808400_1901583832_142189863_1587555440" to="388808400_1901583832_142189863_1587555447" />
	<connection from="388808400_1901583832_142189863_1587555447" to="388808400_1901583832_142189863_2362524100" />
	<connection from="388808400_1901583832_142189863_2362524100" to="388808400_1901583832_142189863_1587555466" />
	<connection from="388808400_1901583832_142189863_1587555466" to="388808400_1901583832_142189863_2362524103" />
	<connection from="388808400_1901583832_142189863_2362524103" to="388808400_1901583832_142189863_2296638095" />
	<connection from="388808400_1901583832_142189863_2296638095" to="388808400_1901583832_142189863_1587555486" />
	<connection from="388808400_1901583832_142189863_1587555486" to="388808400_1901583832_142189863_2368299995" />
	<connection from="388808400_1901583832_142189863_2368299995" to="388808400_1901583832_142189863_2368287593" />
	<connection from="388808400_1901583832_142189863_2368287593" to="388808400_1901583832_142189863_1587555497" />
	<connection from="388808400_1901583832_142189863_1587555497" to="388808400_1901583832_142189863_2296638087" />
	<connection from="388808400_1901583832_142189863_2296638087" to="388808400_1901583832_142189863_3738891836" />
	<connection from="388808400_1901583832_142189863_3738891836" to="388808400_1901583832_142189863_3738891839" />
	<connection from="388808400_1901583832_142189863_3738891839" to="388808400_1901583832_142189863_1587555512" />
	<connection from="388808400_1901583832_142189863_1587555512" to="388808400_1901583832_142189863_2296638102" />
	<connection from="388808400_1901583832_142189863_2296638102" to="388808400_1901583832_142189863_1898860524" />
	<connection from="328458674_25038515_378693785_25038515" to="328458674_25038515_378693785_25038599" />
	<connection from="328458674_25038515_378693785_25038599" to="328458674_25038515_378693785_25038598" />
	<connection from="328458674_25038515_378693785_25038598" to="328458674_25038515_378693785_25038597" />
	<connection from="328458674_25038515_378693785_25038597" to="328458674_25038515_378693785_25038634" />
	<connection from="328458674_25038515_378693785_25038634" to="328458674_25038515_378693785_3738891740" />
	<connection from="328458674_25038515_378693785_3738891740" to="328458674_25038515_378693785_3738891739" />
	<connection from="328458674_25038515_378693785_3738891739" to="328458674_25038515_378693785_50930737" />
	<connection from="328458674_25038515_378693785_50930737" to="328458674_25038515_378693785_378694866" />
	<connection from="328458674_1587555351_25038516_1587555351" to="328458674_1587555351_25038516_1587555336" />
	<connection from="328458674_1587555351_25038516_1587555336" to="328458674_1587555351_25038516_1587555333" />
	<connection from="328458674_1587555351_25038516_1587555333" to="328458674_1587555351_25038516_1587555331" />
	<connection from="328458674_1587555351_25038516_1587555331" to="328458674_1587555351_25038516_1587555313" />
	<connection from="328458674_1587555351_25038516_1587555313" to="328458674_1587555351_25038516_25038518" />
	<connection from="328458674_1587555351_25038516_25038518" to="328458674_1587555351_25038516_3391965236" />
	<connection from="328458674_1587555351_25038516_3391965236" to="328458674_1587555351_25038516_1587555306" />
	<connection from="328458674_1587555351_25038516_1587555306" to="328458674_1587555351_25038516_25038517" />
	<connection from="328458674_1587555351_25038516_25038517" to="328458674_1587555351_25038516_1587555298" />
	<connection from="328458674_1587555351_25038516_1587555298" to="4217293_25038516_1587555241_25038516" />
	<connection from="328458674_1587555351_25038516_1587555298" to="328458674_25038516_25038515_25038516" />
	<connection from="4217297_50935728_1587555228_50935728" to="4217297_50935728_1587555228_3358843444" />
	<connection from="4217297_50935728_1587555228_3358843444" to="4217297_50935728_1587555228_1587555101" />
	<connection from="4217297_50935728_1587555228_1587555101" to="4217297_50935728_1587555228_2296649753" />
	<connection from="4217297_50935728_1587555228_2296649753" to="4217297_50935728_1587555228_25038483" />
	<connection from="4217297_50935728_1587555228_25038483" to="4217297_50935728_1587555228_25038488" />
	<connection from="4217297_50935728_1587555228_25038488" to="4217297_50935728_1587555228_25038492" />
	<connection from="4217297_50935728_1587555228_25038492" to="4217297_50935728_1587555228_25038495" />
	<connection from="4217297_50935728_1587555228_25038495" to="4217297_50935728_1587555228_1855731373" />
	<connection from="4217297_50935728_1587555228_1855731373" to="4217297_50935728_1587555228_1587555132" />
	<connection from="4217297_50935728_1587555228_1587555132" to="220553570_1587555228_1587555241_1587555228" />
	<connection from="4217297_50935728_1587555228_1587555132" to="4217297_1587555228_25038515_1587555228" />
	<connection from="220553570_2332497553_1587555228_2332497553" to="220553570_2332497553_1587555228_25038607" />
	<connection from="220553570_2332497553_1587555228_25038607" to="220553570_2332497553_1587555228_25038633" />
	<connection from="220553570_2332497553_1587555228_25038633" to="220553570_2332497553_1587555228_4171587121" />
	<connection from="220553570_2332497553_1587555228_4171587121" to="220553570_2332497553_1587555228_4171587122" />
	<connection from="220553570_2332497553_1587555228_4171587122" to="220553570_2332497553_1587555228_25038592" />
	<connection from="220553570_2332497553_1587555228_25038592" to="220553570_2332497553_1587555228_25038595" />
	<connection from="220553570_2332497553_1587555228_25038595" to="220553570_2332497553_1587555228_25038596" />
	<connection from="220553570_2332497553_1587555228_25038596" to="220553570_1587555228_1587555241_1587555228" />
	<connection from="220553570_2332497553_1587555228_25038596" to="4217297_1587555228_25038515_1587555228" />
	<connection from="4217293_25038522_25038516_25038522" to="4217293_25038522_25038516_3738891781" />
	<connection from="4217293_25038522_25038516_3738891781" to="4217293_25038522_25038516_3738891775" />
	<connection from="4217293_25038522_25038516_3738891775" to="4217293_25038522_25038516_1587555304" />
	<connection from="4217293_25038522_25038516_1587555304" to="4217293_25038516_1587555241_25038516" />
	<connection from="4217293_25038522_25038516_1587555304" to="328458674_25038516_25038515_25038516" />
	<connection from="220553570_1587555241_2928075527_1587555241" to="220553570_1587555241_2928075527_1587555243" />
	<connection from="220553570_1587555241_2928075527_1587555243" to="220553570_1587555241_2928075527_1587555249" />
	<connection from="220553570_1587555241_2928075527_1587555249" to="220553570_1587555241_2928075527_3391965252" />
	<connection from="220553570_1587555241_2928075527_3391965252" to="220553570_1587555241_2928075527_3391965251" />
	<connection from="220553570_1587555241_2928075527_3391965251" to="220553570_1587555241_2928075527_25038509" />
	<connection from="220553570_1587555241_2928075527_25038509" to="220553570_1587555241_2928075527_1587555251" />
	<connection from="220553570_1587555241_2928075527_1587555251" to="220553570_1587555241_2928075527_1587555259" />
	<connection from="220553570_1587555241_2928075527_1587555259" to="220553570_1587555241_2928075527_25038510" />
	<connection from="220553570_1587555241_2928075527_25038510" to="220553570_1587555241_2928075527_1587555260" />
	<connection from="220553570_1587555241_2928075527_1587555260" to="220553570_1587555241_2928075527_1587555271" />
	<connection from="220553570_1587555241_2928075527_1587555271" to="220553570_1587555241_2928075527_1587555273" />
	<connection from="220553570_1587555241_2928075527_1587555273" to="220553570_1587555241_2928075527_1587555275" />
	<connection from="4217297_1587555228_25038515_1587555228" to="328458674_25038515_378693785_25038515" />
	<connection from="4217297_1587555228_25038515_1587555228" to="4217297_25038515_25038521_25038515" />
	<connection from="370164917_25038523_25038522_25038523" to="370164917_25038523_25038522_1587555415" />
	<connection from="370164917_25038523_25038522_1587555415" to="370164917_25038523_25038522_2331227949" />
	<connection from="370164917_25038523_25038522_2331227949" to="370164917_25038523_25038522_1587555398" />
	<connection from="370164917_25038523_25038522_1587555398" to="4217293_25038522_25038516_25038522" />
	<connection from="370164917_25038523_25038522_1587555398" to="370164915_25038522_25038521_25038522" />
	<connection from="370164933_25038521_1345381151_25038521" to="370164933_25038521_1345381151_3738891778" />
	<connection from="370164933_25038521_1345381151_3738891778" to="370164933_25038521_1345381151_1345381153" />
	<connection from="370164933_25038521_1345381151_1345381153" to="388808400_1345381151_1901583832_1345381151" />
	<connection from="370164918_25038521_25038604_25038521" to="370164918_25038521_25038604_2368304061" />
	<connection from="370164918_25038521_25038604_2368304061" to="370164918_25038521_25038604_3738891774" />
	<connection from="370164918_25038521_25038604_3738891774" to="370164918_25038521_25038604_2331227910" />
	<connection from="370164915_25038522_25038521_25038522" to="370164915_25038522_25038521_1587555381" />
	<connection from="370164915_25038522_25038521_1587555381" to="370164915_25038522_25038521_2331227907" />
	<connection from="370164915_25038522_25038521_2331227907" to="370164918_25038521_25038604_25038521" />
	<connection from="4217297_25038515_25038521_25038515" to="4217297_25038515_25038521_3738891767" />
	<connection from="4217297_25038515_25038521_3738891767" to="4217297_25038515_25038521_3738891771" />
	<connection from="4217297_25038515_25038521_3738891771" to="370164933_25038521_1345381151_25038521" />
	<connection from="4217297_25038515_25038521_3738891771" to="370164918_25038521_25038604_25038521" />
	<connection from="328458674_25038516_25038515_25038516" to="328458674_25038515_378693785_25038515" />
	<connection from="328458674_25038516_25038515_25038516" to="4217297_25038515_25038521_25038515" />
</connections>
