<edges>
	<edge id="220553570_1587555228_1587555241_1587555228" from="1587555228" to="1587555231" numLanes="3" speed="16.67" />
	<edge id="220553570_1587555228_1587555241_1587555231" from="1587555231" to="1587555241" numLanes="3" speed="16.67" />
	<edge id="388808400_1345381151_1901583832_1345381151" from="1345381151" to="1901583832" numLanes="3" speed="19.44" />
	<edge id="119873085_1901583832_25038522_1901583832" from="1901583832" to="2296638091" numLanes="2" speed="18.06" />
	<edge id="119873085_1901583832_25038522_2296638091" from="2296638091" to="2296638096" numLanes="2" speed="18.06" />
	<edge id="119873085_1901583832_25038522_2296638096" from="2296638096" to="3738891787" numLanes="2" speed="18.06" />
	<edge id="119873085_1901583832_25038522_3738891787" from="3738891787" to="1345380563" numLanes="2" speed="18.06" />
	<edge id="119873085_1901583832_25038522_1345380563" from="1345380563" to="1901583789" numLanes="2" speed="18.06" />
	<edge id="119873085_1901583832_25038522_1901583789" from="1901583789" to="25038522" numLanes="2" speed="18.06" />
	<edge id="4217293_25038516_1587555241_25038516" from="25038516" to="1587555254" numLanes="2" speed="8.33" />
	<edge id="4217293_25038516_1587555241_1587555254" from="1587555254" to="1587555241" numLanes="2" speed="8.33" />
	<edge id="4217293_1587555241_25038505_1587555241" from="1587555241" to="1587555227" numLanes="2" speed="8.33" />
	<edge id="4217293_1587555241_25038505_1587555227" from="1587555227" to="1587555145" numLanes="2" speed="8.33" />
	<edge id="4217293_1587555241_25038505_1587555145" from="1587555145" to="1587555142" numLanes="2" speed="8.33" />
	<edge id="4217293_1587555241_25038505_1587555142" from="1587555142" to="1587555129" numLanes="2" speed="8.33" />
	<edge id="4217293_1587555241_25038505_1587555129" from="1587555129" to="25038496" numLanes="2" speed="8.33" />
	<edge id="4217293_1587555241_25038505_25038496" from="25038496" to="1587555126" numLanes="2" speed="8.33" />
	<edge id="4217293_1587555241_25038505_1587555126" from="1587555126" to="25038493" numLanes="2" speed="8.33" />
	<edge id="4217293_1587555241_25038505_25038493" from="25038493" to="1587555112" numLanes="2" speed="8.33" />
	<edge id="4217293_1587555241_25038505_1587555112" from="1587555112" to="25038489" numLanes="2" speed="8.33" />
	<edge id="4217293_1587555241_25038505_25038489" from="25038489" to="25038484" numLanes="2" speed="8.33" />
	<edge id="4217293_1587555241_25038505_25038484" from="25038484" to="1587555097" numLanes="2" speed="8.33" />
	<edge id="4217293_1587555241_25038505_1587555097" from="1587555097" to="25038505" numLanes="2" speed="8.33" />
	<edge id="388808400_142182060_1345381151_142182060" from="142182060" to="3738891762" numLanes="3" speed="19.44" />
	<edge id="388808400_142182060_1345381151_3738891762" from="3738891762" to="2331227892" numLanes="3" speed="19.44" />
	<edge id="388808400_142182060_1345381151_2331227892" from="2331227892" to="2331227942" numLanes="3" speed="19.44" />
	<edge id="388808400_142182060_1345381151_2331227942" from="2331227942" to="2296636206" numLanes="3" speed="19.44" />
	<edge id="388808400_142182060_1345381151_2296636206" from="2296636206" to="2331227986" numLanes="3" speed="19.44" />
	<edge id="388808400_142182060_1345381151_2331227986" from="2331227986" to="2331227901" numLanes="3" speed="19.44" />
	<edge id="388808400_142182060_1345381151_2331227901" from="2331227901" to="2296638089" numLanes="3" speed="19.44" />
	<edge id="388808400_142182060_1345381151_2296638089" from="2296638089" to="2331227955" numLanes="3" speed="19.44" />
	<edge id="388808400_142182060_1345381151_2331227955" from="2331227955" to="2331227868" numLanes="3" speed="19.44" />
	<edge id="388808400_142182060_1345381151_2331227868" from="2331227868" to="1345381151" numLanes="3" speed="19.44" />
	<edge id="388808400_1901583832_142189863_1901583832" from="1901583832" to="2331228011" numLanes="3" speed="19.44" />
	<edge id="388808400_1901583832_142189863_2331228011" from="2331228011" to="1587555422" numLanes="3" speed="19.44" />
	<edge id="388808400_1901583832_142189863_1587555422" from="1587555422" to="1587555440" numLanes="3" speed="19.44" />
	<edge id="388808400_1901583832_142189863_1587555440" from="1587555440" to="1587555447" numLanes="3" speed="19.44" />
	<edge id="388808400_1901583832_142189863_1587555447" from="1587555447" to="2362524100" numLanes="3" speed="19.44" />
	<edge id="388808400_1901583832_142189863_2362524100" from="2362524100" to="1587555466" numLanes="3" speed="19.44" />
	<edge id="388808400_1901583832_142189863_1587555466" from="1587555466" to="2362524103" numLanes="3" speed="19.44" />
	<edge id="388808400_1901583832_142189863_2362524103" from="2362524103" to="2296638095" numLanes="3" speed="19.44" />
	<edge id="388808400_1901583832_142189863_2296638095" from="2296638095" to="1587555486" numLanes="3" speed="19.44" />
	<edge id="388808400_1901583832_142189863_1587555486" from="1587555486" to="2368299995" numLanes="3" speed="19.44" />
	<edge id="388808400_1901583832_142189863_2368299995" from="2368299995" to="2368287593" numLanes="3" speed="19.44" />
	<edge id="388808400_1901583832_142189863_2368287593" from="2368287593" to="1587555497" numLanes="3" speed="19.44" />
	<edge id="388808400_1901583832_142189863_1587555497" from="1587555497" to="2296638087" numLanes="3" speed="19.44" />
	<edge id="388808400_1901583832_142189863_2296638087" from="2296638087" to="3738891836" numLanes="3" speed="19.44" />
	<edge id="388808400_1901583832_142189863_3738891836" from="3738891836" to="3738891839" numLanes="3" speed="19.44" />
	<edge id="388808400_1901583832_142189863_3738891839" from="3738891839" to="1587555512" numLanes="3" speed="19.44" />
	<edge id="388808400_1901583832_142189863_1587555512" from="1587555512" to="2296638102" numLanes="3" speed="19.44" />
	<edge id="388808400_1901583832_142189863_2296638102" from="2296638102" to="1898860524" numLanes="3" speed="19.44" />
	<edge id="388808400_1901583832_142189863_1898860524" from="1898860524" to="142189863" numLanes="3" speed="19.44" />
	<edge id="328458674_25038515_378693785_25038515" from="25038515" to="25038599" numLanes="3" speed="16.67" />
	<edge id="328458674_25038515_378693785_25038599" from="25038599" to="25038598" numLanes="3" speed="16.67" />
	<edge id="328458674_25038515_378693785_25038598" from="25038598" to="25038597" numLanes="3" speed="16.67" />
	<edge id="328458674_25038515_378693785_25038597" from="25038597" to="25038634" numLanes="3" speed="16.67" />
	<edge id="328458674_25038515_378693785_25038634" from="25038634" to="3738891740" numLanes="3" speed="16.67" />
	<edge id="328458674_25038515_378693785_3738891740" from="3738891740" to="3738891739" numLanes="3" speed="16.67" />
	<edge id="328458674_25038515_378693785_3738891739" from="3738891739" to="50930737" numLanes="3" speed="16.67" />
	<edge id="328458674_25038515_378693785_50930737" from="50930737" to="378694866" numLanes="3" speed="16.67" />
	<edge id="328458674_25038515_378693785_378694866" from="378694866" to="378693785" numLanes="3" speed="16.67" />
	<edge id="328458674_1587555351_25038516_1587555351" from="1587555351" to="1587555336" numLanes="3" speed="16.67" />
	<edge id="328458674_1587555351_25038516_1587555336" from="1587555336" to="1587555333" numLanes="3" speed="16.67" />
	<edge id="328458674_1587555351_25038516_1587555333" from="1587555333" to="1587555331" numLanes="3" speed="16.67" />
	<edge id="328458674_1587555351_25038516_1587555331" from="1587555331" to="1587555313" numLanes="3" speed="16.67" />
	<edge id="328458674_1587555351_25038516_1587555313" from="1587555313" to="25038518" numLanes="3" speed="16.67" />
	<edge id="328458674_1587555351_25038516_25038518" from="25038518" to="3391965236" numLanes="3" speed="16.67" />
	<edge id="328458674_1587555351_25038516_3391965236" from="3391965236" to="1587555306" numLanes="3" speed="16.67" />
	<edge id="328458674_1587555351_25038516_1587555306" from="1587555306" to="25038517" numLanes="3" speed="16.67" />
	<edge id="328458674_1587555351_25038516_25038517" from="25038517" to="1587555298" numLanes="3" speed="16.67" />
	<edge id="328458674_1587555351_25038516_1587555298" from="1587555298" to="25038516" numLanes="3" speed="16.67" />
	<edge id="4217297_50935728_1587555228_50935728" from="50935728" to="3358843444" numLanes="2" speed="8.33" />
	<edge id="4217297_50935728_1587555228_3358843444" from="3358843444" to="1587555101" numLanes="2" speed="8.33" />
	<edge id="4217297_50935728_1587555228_1587555101" from="1587555101" to="2296649753" numLanes="2" speed="8.33" />
	<edge id="4217297_50935728_1587555228_2296649753" from="2296649753" to="25038483" numLanes="2" speed="8.33" />
	<edge id="4217297_50935728_1587555228_25038483" from="25038483" to="25038488" numLanes="2" speed="8.33" />
	<edge id="4217297_50935728_1587555228_25038488" from="25038488" to="25038492" numLanes="2" speed="8.33" />
	<edge id="4217297_50935728_1587555228_25038492" from="25038492" to="25038495" numLanes="2" speed="8.33" />
	<edge id="4217297_50935728_1587555228_25038495" from="25038495" to="1855731373" numLanes="2" speed="8.33" />
	<edge id="4217297_50935728_1587555228_1855731373" from="1855731373" to="1587555132" numLanes="2" speed="8.33" />
	<edge id="4217297_50935728_1587555228_1587555132" from="1587555132" to="1587555228" numLanes="2" speed="8.33" />
	<edge id="220553570_2332497553_1587555228_2332497553" from="2332497553" to="25038607" numLanes="3" speed="16.67" />
	<edge id="220553570_2332497553_1587555228_25038607" from="25038607" to="25038633" numLanes="3" speed="16.67" />
	<edge id="220553570_2332497553_1587555228_25038633" from="25038633" to="4171587121" numLanes="3" speed="16.67" />
	<edge id="220553570_2332497553_1587555228_4171587121" from="4171587121" to="4171587122" numLanes="3" speed="16.67" />
	<edge id="220553570_2332497553_1587555228_4171587122" from="4171587122" to="25038592" numLanes="3" speed="16.67" />
	<edge id="220553570_2332497553_1587555228_25038592" from="25038592" to="25038595" numLanes="3" speed="16.67" />
	<edge id="220553570_2332497553_1587555228_25038595" from="25038595" to="25038596" numLanes="3" speed="16.67" />
	<edge id="220553570_2332497553_1587555228_25038596" from="25038596" to="1587555228" numLanes="3" speed="16.67" />
	<edge id="4217293_25038522_25038516_25038522" from="25038522" to="3738891781" numLanes="2" speed="8.33" />
	<edge id="4217293_25038522_25038516_3738891781" from="3738891781" to="3738891775" numLanes="2" speed="8.33" />
	<edge id="4217293_25038522_25038516_3738891775" from="3738891775" to="1587555304" numLanes="2" speed="8.33" />
	<edge id="4217293_25038522_25038516_1587555304" from="1587555304" to="25038516" numLanes="2" speed="8.33" />
	<edge id="220553570_1587555241_2928075527_1587555241" from="1587555241" to="1587555243" numLanes="3" speed="16.67" />
	<edge id="220553570_1587555241_2928075527_1587555243" from="1587555243" to="1587555249" numLanes="3" speed="16.67" />
	<edge id="220553570_1587555241_2928075527_1587555249" from="1587555249" to="3391965252" numLanes="3" speed="16.67" />
	<edge id="220553570_1587555241_2928075527_3391965252" from="3391965252" to="3391965251" numLanes="3" speed="16.67" />
	<edge id="220553570_1587555241_2928075527_3391965251" from="3391965251" to="25038509" numLanes="3" speed="16.67" />
	<edge id="220553570_1587555241_2928075527_25038509" from="25038509" to="1587555251" numLanes="3" speed="16.67" />
	<edge id="220553570_1587555241_2928075527_1587555251" from="1587555251" to="1587555259" numLanes="3" speed="16.67" />
	<edge id="220553570_1587555241_2928075527_1587555259" from="1587555259" to="25038510" numLanes="3" speed="16.67" />
	<edge id="220553570_1587555241_2928075527_25038510" from="25038510" to="1587555260" numLanes="3" speed="16.67" />
	<edge id="220553570_1587555241_2928075527_1587555260" from="1587555260" to="1587555271" numLanes="3" speed="16.67" />
	<edge id="220553570_1587555241_2928075527_1587555271" from="1587555271" to="1587555273" numLanes="3" speed="16.67" />
	<edge id="220553570_1587555241_2928075527_1587555273" from="1587555273" to="1587555275" numLanes="3" speed="16.67" />
	<edge id="220553570_1587555241_2928075527_1587555275" from="1587555275" to="2928075527" numLanes="3" speed="16.67" />
	<edge id="4217297_1587555228_25038515_1587555228" from="1587555228" to="25038515" numLanes="2" speed="8.33" />
	<edge id="370164917_25038523_25038522_25038523" from="25038523" to="1587555415" numLanes="3" speed="19.44" />
	<edge id="370164917_25038523_25038522_1587555415" from="1587555415" to="2331227949" numLanes="3" speed="19.44" />
	<edge id="370164917_25038523_25038522_2331227949" from="2331227949" to="1587555398" numLanes="3" speed="19.44" />
	<edge id="370164917_25038523_25038522_1587555398" from="1587555398" to="25038522" numLanes="3" speed="19.44" />
	<edge id="370164933_25038521_1345381151_25038521" from="25038521" to="3738891778" numLanes="2" speed="8.33" />
	<edge id="370164933_25038521_1345381151_3738891778" from="3738891778" to="1345381153" numLanes="2" speed="8.33" />
	<edge id="370164933_25038521_1345381151_1345381153" from="1345381153" to="1345381151" numLanes="2" speed="8.33" />
	<edge id="370164918_25038521_25038604_25038521" from="25038521" to="2368304061" numLanes="3" speed="19.44" />
	<edge id="370164918_25038521_25038604_2368304061" from="2368304061" to="3738891774" numLanes="3" speed="19.44" />
	<edge id="370164918_25038521_25038604_3738891774" from="3738891774" to="2331227910" numLanes="3" speed="19.44" />
	<edge id="370164918_25038521_25038604_2331227910" from="2331227910" to="25038604" numLanes="3" speed="19.44" />
	<edge id="370164915_25038522_25038521_25038522" from="25038522" to="1587555381" numLanes="3" speed="19.44" />
	<edge id="370164915_25038522_25038521_1587555381" from="1587555381" to="2331227907" numLanes="3" speed="19.44" />
	<edge id="370164915_25038522_25038521_2331227907" from="2331227907" to="25038521" numLanes="3" speed="19.44" />
	<edge id="4217297_25038515_25038521_25038515" from="25038515" to="3738891767" numLanes="2" speed="8.33" />
	<edge id="4217297_25038515_25038521_3738891767" from="3738891767" to="3738891771" numLanes="2" speed="8.33" />
	<edge id="4217297_25038515_25038521_3738891771" from="3738891771" to="25038521" numLanes="2" speed="8.33" />
	<edge id="328458674_25038516_25038515_25038516" from="25038516" to="25038515" numLanes="3" speed="16.67" />
</edges>
