<?xml version="1.0" encoding="UTF-8"?>

<!-- generated on Tue Nov 26 15:46:38 2019 by Eclipse SUMO netconvert Version 1.2.0
<configuration xmlns:xsi="http://www.w3.org/2001/XMLSchema-instance" xsi:noNamespaceSchemaLocation="http://sumo.dlr.de/xsd/netconvertConfiguration.xsd">

    <input>
        <node-files value="/home/andre/VSIMRTI/vsimrti19.1/vsimrti/scenarios/SBRC/MAPA/ipanema.nod.xml"/>
        <edge-files value="/home/andre/VSIMRTI/vsimrti19.1/vsimrti/scenarios/SBRC/MAPA/ipanema.edg.xml"/>
        <connection-files value="/home/andre/VSIMRTI/vsimrti19.1/vsimrti/scenarios/SBRC/MAPA/ipanema.con.xml"/>
    </input>

    <output>
        <output-file value="/home/andre/VSIMRTI/vsimrti19.1/vsimrti/scenarios/SBRC/MAPA/ipanema.net.xml"/>
    </output>

</configuration>
-->

<net version="1.1" junctionCornerDetail="5" limitTurnSpeed="5.50" xmlns:xsi="http://www.w3.org/2001/XMLSchema-instance" xsi:noNamespaceSchemaLocation="http://sumo.dlr.de/xsd/net_file.xsd">

    <location netOffset="-682964.78,-7456682.16" convBoundary="0.00,0.00,2095.24,866.12" origBoundary="682964.78,7456682.16,685060.02,7457548.29" projParameter="!"/>

    <edge id=":1345380563_0" function="internal">
        <lane id=":1345380563_0_0" index="0" speed="18.06" length="0.71" shape="1006.44,164.17 1006.75,164.26 1006.95,164.32 1007.15,164.41 1007.43,164.56"/>
        <lane id=":1345380563_0_1" index="1" speed="18.06" length="0.71" shape="1005.60,167.26 1005.70,167.29 1005.77,167.31 1005.83,167.34 1005.93,167.39"/>
    </edge>
    <edge id=":1345381151_0" function="internal">
        <lane id=":1345381151_0_0" index="0" speed="19.44" length="3.00" shape="805.81,165.60 808.87,165.37"/>
        <lane id=":1345381151_0_1" index="1" speed="19.44" length="3.00" shape="806.09,168.79 809.08,168.56"/>
        <lane id=":1345381151_0_2" index="2" speed="19.44" length="3.00" shape="806.37,171.98 809.29,171.76"/>
    </edge>
    <edge id=":1345381151_3" function="internal">
        <lane id=":1345381151_3_0" index="0" speed="10.75" length="4.69" shape="803.95,170.35 805.31,169.44 806.34,168.94 807.45,168.70 809.08,168.56"/>
        <lane id=":1345381151_3_1" index="1" speed="9.00" length="4.69" shape="805.76,172.98 806.70,172.36 807.40,172.02 808.17,171.85 809.29,171.76"/>
    </edge>
    <edge id=":1345381153_0" function="internal">
        <lane id=":1345381153_0_0" index="0" speed="8.33" length="1.22" shape="799.57,173.77 799.88,173.32 800.11,173.04 800.40,172.80 800.84,172.48"/>
        <lane id=":1345381153_0_1" index="1" speed="8.33" length="1.22" shape="802.23,175.55 802.33,175.40 802.41,175.31 802.51,175.22 802.65,175.12"/>
    </edge>
    <edge id=":1587555097_0" function="internal">
        <lane id=":1587555097_0_0" index="0" speed="8.33" length="0.10" shape="1077.71,857.03 1077.71,857.03"/>
        <lane id=":1587555097_0_1" index="1" speed="8.33" length="0.10" shape="1074.52,857.26 1074.52,857.26"/>
    </edge>
    <edge id=":1587555101_0" function="internal">
        <lane id=":1587555101_0_0" index="0" speed="8.33" length="1.31" shape="859.02,828.52 858.58,828.14 858.30,827.85 858.08,827.52 857.81,827.00"/>
        <lane id=":1587555101_0_1" index="1" speed="8.33" length="1.31" shape="861.06,826.05 860.91,825.93 860.82,825.83 860.75,825.72 860.66,825.55"/>
    </edge>
    <edge id=":1587555112_0" function="internal">
        <lane id=":1587555112_0_0" index="0" speed="8.33" length="0.10" shape="1065.89,698.21 1065.89,698.21"/>
        <lane id=":1587555112_0_1" index="1" speed="8.33" length="0.10" shape="1062.70,698.44 1062.70,698.44"/>
    </edge>
    <edge id=":1587555126_0" function="internal">
        <lane id=":1587555126_0_0" index="0" speed="8.33" length="0.30" shape="1061.54,639.61 1061.56,639.91"/>
        <lane id=":1587555126_0_1" index="1" speed="8.33" length="0.30" shape="1058.35,639.85 1058.37,640.15"/>
    </edge>
    <edge id=":1587555129_0" function="internal">
        <lane id=":1587555129_0_0" index="0" speed="8.33" length="0.30" shape="1054.64,546.78 1054.66,547.08"/>
        <lane id=":1587555129_0_1" index="1" speed="8.33" length="0.30" shape="1051.45,547.02 1051.47,547.32"/>
    </edge>
    <edge id=":1587555132_0" function="internal">
        <lane id=":1587555132_0_0" index="0" speed="8.33" length="0.29" shape="823.67,550.95 823.65,550.64"/>
        <lane id=":1587555132_0_1" index="1" speed="8.33" length="0.29" shape="826.86,550.69 826.84,550.41"/>
    </edge>
    <edge id=":1587555142_0" function="internal">
        <lane id=":1587555142_0_0" index="0" speed="8.33" length="0.30" shape="1053.77,535.14 1053.79,535.44"/>
        <lane id=":1587555142_0_1" index="1" speed="8.33" length="0.30" shape="1050.58,535.38 1050.60,535.68"/>
    </edge>
    <edge id=":1587555145_0" function="internal">
        <lane id=":1587555145_0_0" index="0" speed="8.33" length="3.26" shape="1052.44,520.62 1052.94,523.97"/>
        <lane id=":1587555145_0_1" index="1" speed="8.33" length="3.26" shape="1049.27,521.12 1049.75,524.21"/>
    </edge>
    <edge id=":1587555227_0" function="internal">
        <lane id=":1587555227_0_0" index="0" speed="8.33" length="0.26" shape="1038.63,432.25 1038.64,432.38"/>
        <lane id=":1587555227_0_1" index="1" speed="8.33" length="0.26" shape="1035.44,432.49 1035.48,432.87"/>
    </edge>
    <edge id=":1587555228_0" function="internal">
        <lane id=":1587555228_0_0" index="0" speed="8.33" length="17.68" shape="815.41,434.07 813.82,416.50"/>
        <lane id=":1587555228_0_1" index="1" speed="8.33" length="17.68" shape="818.61,433.84 817.00,416.19"/>
    </edge>
    <edge id=":1587555228_2" function="internal">
        <lane id=":1587555228_2_0" index="0" speed="7.31" length="11.85" shape="818.61,433.84 818.69,429.93 819.56,427.09 821.22,425.33 823.67,424.65"/>
    </edge>
    <edge id=":1587555228_3" function="internal">
        <lane id=":1587555228_3_0" index="0" speed="6.49" length="9.11" shape="818.61,433.84 818.78,431.33 819.71,429.49 821.39,428.33 823.83,427.85"/>
    </edge>
    <edge id=":1587555228_4" function="internal">
        <lane id=":1587555228_4_0" index="0" speed="6.48" length="9.03" shape="808.76,422.57 811.18,422.01 812.82,420.81 813.70,418.98 813.82,416.50"/>
    </edge>
    <edge id=":1587555228_5" function="internal">
        <lane id=":1587555228_5_0" index="0" speed="16.67" length="14.68" shape="808.76,422.57 823.51,421.46"/>
        <lane id=":1587555228_5_1" index="1" speed="16.67" length="14.68" shape="809.04,425.76 823.67,424.65"/>
        <lane id=":1587555228_5_2" index="2" speed="16.67" length="14.68" shape="809.31,428.95 823.83,427.85"/>
    </edge>
    <edge id=":1587555231_0" function="internal">
        <lane id=":1587555231_0_0" index="0" speed="16.67" length="0.28" shape="1013.75,412.01 1013.97,412.00"/>
        <lane id=":1587555231_0_1" index="1" speed="16.67" length="0.28" shape="1013.91,415.21 1014.19,415.19"/>
        <lane id=":1587555231_0_2" index="2" speed="16.67" length="0.28" shape="1014.07,418.40 1014.41,418.38"/>
    </edge>
    <edge id=":1587555241_0" function="internal">
        <lane id=":1587555241_0_0" index="0" speed="6.54" length="9.07" shape="1036.58,404.83 1037.12,407.25 1038.30,408.93 1040.13,409.86 1042.61,410.04"/>
    </edge>
    <edge id=":1587555241_1" function="internal">
        <lane id=":1587555241_1_0" index="0" speed="8.02" length="14.21" shape="1033.39,405.07 1034.23,408.86 1036.08,411.49 1038.95,412.94 1042.83,413.23"/>
    </edge>
    <edge id=":1587555241_2" function="internal">
        <lane id=":1587555241_2_0" index="0" speed="8.33" length="17.97" shape="1033.39,405.07 1034.28,410.28 1035.64,413.72 1037.00,417.16 1037.89,422.37"/>
    </edge>
    <edge id=":1587555241_3" function="internal">
        <lane id=":1587555241_3_0" index="0" speed="16.67" length="14.41" shape="1028.24,411.02 1042.61,410.04"/>
        <lane id=":1587555241_3_1" index="1" speed="16.67" length="14.41" shape="1028.46,414.21 1042.83,413.23"/>
        <lane id=":1587555241_3_2" index="2" speed="16.67" length="14.41" shape="1028.67,417.40 1043.05,416.42"/>
    </edge>
    <edge id=":1587555241_6" function="internal">
        <lane id=":1587555241_6_0" index="0" speed="6.53" length="9.07" shape="1028.67,417.40 1031.15,417.58 1032.98,418.51 1034.17,420.19 1034.70,422.61"/>
    </edge>
    <edge id=":1587555243_0" function="internal">
        <lane id=":1587555243_0_0" index="0" speed="16.67" length="0.30" shape="1044.03,409.94 1044.32,409.92"/>
        <lane id=":1587555243_0_1" index="1" speed="16.67" length="0.30" shape="1044.25,413.13 1044.55,413.11"/>
        <lane id=":1587555243_0_2" index="2" speed="16.67" length="0.30" shape="1044.47,416.33 1044.77,416.31"/>
    </edge>
    <edge id=":1587555249_0" function="internal">
        <lane id=":1587555249_0_0" index="0" speed="16.67" length="0.10" shape="1135.36,403.50 1135.36,403.50"/>
        <lane id=":1587555249_0_1" index="1" speed="16.67" length="0.10" shape="1135.59,406.69 1135.59,406.69"/>
        <lane id=":1587555249_0_2" index="2" speed="16.67" length="0.10" shape="1135.81,409.88 1135.81,409.88"/>
    </edge>
    <edge id=":1587555251_0" function="internal">
        <lane id=":1587555251_0_0" index="0" speed="16.67" length="0.29" shape="1260.71,394.71 1261.04,394.68"/>
        <lane id=":1587555251_0_1" index="1" speed="16.67" length="0.29" shape="1260.99,397.89 1261.28,397.87"/>
        <lane id=":1587555251_0_2" index="2" speed="16.67" length="0.29" shape="1261.26,401.08 1261.51,401.06"/>
    </edge>
    <edge id=":1587555254_0" function="internal">
        <lane id=":1587555254_0_0" index="0" speed="8.33" length="0.30" shape="1036.37,401.91 1036.39,402.20"/>
        <lane id=":1587555254_0_1" index="1" speed="8.33" length="0.30" shape="1033.18,402.13 1033.20,402.44"/>
    </edge>
    <edge id=":1587555259_0" function="internal">
        <lane id=":1587555259_0_0" index="0" speed="16.67" length="0.30" shape="1449.37,380.70 1449.69,380.68"/>
        <lane id=":1587555259_0_1" index="1" speed="16.67" length="0.30" shape="1449.61,383.89 1449.91,383.87"/>
        <lane id=":1587555259_0_2" index="2" speed="16.67" length="0.30" shape="1449.84,387.08 1450.12,387.06"/>
    </edge>
    <edge id=":1587555260_0" function="internal">
        <lane id=":1587555260_0_0" index="0" speed="16.67" length="0.30" shape="1480.94,378.54 1481.22,378.52"/>
        <lane id=":1587555260_0_1" index="1" speed="16.67" length="0.30" shape="1481.16,381.73 1481.45,381.71"/>
        <lane id=":1587555260_0_2" index="2" speed="16.67" length="0.30" shape="1481.37,384.92 1481.69,384.90"/>
    </edge>
    <edge id=":1587555271_0" function="internal">
        <lane id=":1587555271_0_0" index="0" speed="16.67" length="0.30" shape="1665.60,364.83 1665.91,364.81"/>
        <lane id=":1587555271_0_1" index="1" speed="16.67" length="0.30" shape="1665.83,368.03 1666.13,368.00"/>
        <lane id=":1587555271_0_2" index="2" speed="16.67" length="0.30" shape="1666.07,371.22 1666.35,371.20"/>
    </edge>
    <edge id=":1587555273_0" function="internal">
        <lane id=":1587555273_0_0" index="0" speed="16.67" length="0.30" shape="1683.18,363.63 1683.47,363.61"/>
        <lane id=":1587555273_0_1" index="1" speed="16.67" length="0.30" shape="1683.40,366.82 1683.69,366.80"/>
        <lane id=":1587555273_0_2" index="2" speed="16.67" length="0.30" shape="1683.61,370.01 1683.91,369.99"/>
    </edge>
    <edge id=":1587555275_0" function="internal">
        <lane id=":1587555275_0_0" index="0" speed="16.67" length="0.29" shape="1700.15,362.46 1700.39,362.44"/>
        <lane id=":1587555275_0_1" index="1" speed="16.67" length="0.29" shape="1700.37,365.65 1700.66,365.63"/>
        <lane id=":1587555275_0_2" index="2" speed="16.67" length="0.29" shape="1700.59,368.84 1700.93,368.82"/>
    </edge>
    <edge id=":1587555298_0" function="internal">
        <lane id=":1587555298_0_0" index="0" speed="16.67" length="0.33" shape="1036.33,305.18 1036.22,305.19"/>
        <lane id=":1587555298_0_1" index="1" speed="16.67" length="0.33" shape="1036.12,301.98 1035.79,302.02"/>
        <lane id=":1587555298_0_2" index="2" speed="16.67" length="0.33" shape="1035.90,298.79 1035.36,298.84"/>
    </edge>
    <edge id=":1587555304_0" function="internal">
        <lane id=":1587555304_0_0" index="0" speed="8.33" length="0.30" shape="1027.62,282.49 1027.64,282.77"/>
        <lane id=":1587555304_0_1" index="1" speed="8.33" length="0.30" shape="1024.43,282.74 1024.46,283.05"/>
    </edge>
    <edge id=":1587555306_0" function="internal">
        <lane id=":1587555306_0_0" index="0" speed="16.67" length="0.18" shape="1250.91,291.11 1250.64,291.13"/>
        <lane id=":1587555306_0_1" index="1" speed="16.67" length="0.18" shape="1250.68,287.92 1250.52,287.93"/>
        <lane id=":1587555306_0_2" index="2" speed="16.67" length="0.18" shape="1250.46,284.73 1250.40,284.73"/>
    </edge>
    <edge id=":1587555313_0" function="internal">
        <lane id=":1587555313_0_0" index="0" speed="16.67" length="0.30" shape="1472.71,275.62 1472.40,275.65"/>
        <lane id=":1587555313_0_1" index="1" speed="16.67" length="0.30" shape="1472.48,272.43 1472.18,272.45"/>
        <lane id=":1587555313_0_2" index="2" speed="16.67" length="0.30" shape="1472.24,269.24 1471.95,269.26"/>
    </edge>
    <edge id=":1587555331_0" function="internal">
        <lane id=":1587555331_0_0" index="0" speed="16.67" length="0.30" shape="1659.24,262.04 1658.94,262.06"/>
        <lane id=":1587555331_0_1" index="1" speed="16.67" length="0.30" shape="1659.01,258.85 1658.71,258.87"/>
        <lane id=":1587555331_0_2" index="2" speed="16.67" length="0.30" shape="1658.78,255.65 1658.48,255.68"/>
    </edge>
    <edge id=":1587555333_0" function="internal">
        <lane id=":1587555333_0_0" index="0" speed="16.67" length="0.10" shape="1674.37,260.96 1674.37,260.96"/>
        <lane id=":1587555333_0_1" index="1" speed="16.67" length="0.10" shape="1674.14,257.77 1674.14,257.77"/>
        <lane id=":1587555333_0_2" index="2" speed="16.67" length="0.10" shape="1673.92,254.58 1673.92,254.58"/>
    </edge>
    <edge id=":1587555336_0" function="internal">
        <lane id=":1587555336_0_0" index="0" speed="16.67" length="0.30" shape="1690.95,259.79 1690.65,259.81"/>
        <lane id=":1587555336_0_1" index="1" speed="16.67" length="0.30" shape="1690.72,256.60 1690.42,256.62"/>
        <lane id=":1587555336_0_2" index="2" speed="16.67" length="0.30" shape="1690.49,253.40 1690.19,253.43"/>
    </edge>
    <edge id=":1587555381_0" function="internal">
        <lane id=":1587555381_0_0" index="0" speed="19.44" length="0.30" shape="995.43,181.97 995.12,181.99"/>
        <lane id=":1587555381_0_1" index="1" speed="19.44" length="0.30" shape="995.21,178.78 994.91,178.80"/>
        <lane id=":1587555381_0_2" index="2" speed="19.44" length="0.30" shape="994.98,175.59 994.70,175.61"/>
    </edge>
    <edge id=":1587555398_0" function="internal">
        <lane id=":1587555398_0_0" index="0" speed="19.44" length="0.15" shape="1022.21,180.10 1022.05,180.12"/>
        <lane id=":1587555398_0_1" index="1" speed="19.44" length="0.15" shape="1021.99,176.91 1021.83,176.92"/>
        <lane id=":1587555398_0_2" index="2" speed="19.44" length="0.15" shape="1021.76,173.72 1021.61,173.73"/>
    </edge>
    <edge id=":1587555415_0" function="internal">
        <lane id=":1587555415_0_0" index="0" speed="19.44" length="0.30" shape="1211.95,166.73 1211.65,166.75"/>
        <lane id=":1587555415_0_1" index="1" speed="19.44" length="0.30" shape="1211.73,163.54 1211.43,163.56"/>
        <lane id=":1587555415_0_2" index="2" speed="19.44" length="0.30" shape="1211.50,160.34 1211.20,160.36"/>
    </edge>
    <edge id=":1587555422_0" function="internal">
        <lane id=":1587555422_0_0" index="0" speed="19.44" length="0.30" shape="1019.75,151.08 1020.04,151.06"/>
        <lane id=":1587555422_0_1" index="1" speed="19.44" length="0.30" shape="1019.96,154.28 1020.26,154.26"/>
        <lane id=":1587555422_0_2" index="2" speed="19.44" length="0.30" shape="1020.18,157.47 1020.48,157.45"/>
    </edge>
    <edge id=":1587555440_0" function="internal">
        <lane id=":1587555440_0_0" index="0" speed="19.44" length="0.30" shape="1172.27,140.61 1172.55,140.59"/>
        <lane id=":1587555440_0_1" index="1" speed="19.44" length="0.30" shape="1172.49,143.81 1172.79,143.78"/>
        <lane id=":1587555440_0_2" index="2" speed="19.44" length="0.30" shape="1172.71,147.00 1173.02,146.98"/>
    </edge>
    <edge id=":1587555447_0" function="internal">
        <lane id=":1587555447_0_0" index="0" speed="19.44" length="0.30" shape="1231.83,136.24 1232.13,136.22"/>
        <lane id=":1587555447_0_1" index="1" speed="19.44" length="0.30" shape="1232.07,139.43 1232.37,139.41"/>
        <lane id=":1587555447_0_2" index="2" speed="19.44" length="0.30" shape="1232.30,142.62 1232.60,142.60"/>
    </edge>
    <edge id=":1587555466_0" function="internal">
        <lane id=":1587555466_0_0" index="0" speed="19.44" length="0.37" shape="1452.02,121.26 1452.27,121.24"/>
        <lane id=":1587555466_0_1" index="1" speed="19.44" length="0.37" shape="1452.24,124.46 1452.60,124.42"/>
        <lane id=":1587555466_0_2" index="2" speed="19.44" length="0.37" shape="1452.46,127.65 1452.94,127.61"/>
    </edge>
    <edge id=":1587555486_0" function="internal">
        <lane id=":1587555486_0_0" index="0" speed="19.44" length="0.29" shape="1650.12,107.82 1650.38,107.80"/>
        <lane id=":1587555486_0_1" index="1" speed="19.44" length="0.29" shape="1650.33,111.01 1650.63,110.99"/>
        <lane id=":1587555486_0_2" index="2" speed="19.44" length="0.29" shape="1650.54,114.20 1650.87,114.18"/>
    </edge>
    <edge id=":1587555497_0" function="internal">
        <lane id=":1587555497_0_0" index="0" speed="19.44" length="0.81" shape="1759.08,99.19 1759.16,99.18 1759.21,99.17 1759.27,99.16 1759.34,99.14"/>
        <lane id=":1587555497_0_1" index="1" speed="19.44" length="0.81" shape="1759.42,102.37 1759.66,102.35 1759.82,102.32 1759.98,102.29 1760.21,102.22"/>
        <lane id=":1587555497_0_2" index="2" speed="19.44" length="0.81" shape="1759.76,105.56 1760.15,105.51 1760.42,105.47 1760.69,105.41 1761.08,105.30"/>
    </edge>
    <edge id=":1587555512_0" function="internal">
        <lane id=":1587555512_0_0" index="0" speed="19.44" length="0.29" shape="1953.82,31.86 1954.14,31.75"/>
        <lane id=":1587555512_0_1" index="1" speed="19.44" length="0.29" shape="1954.87,34.88 1955.14,34.79"/>
        <lane id=":1587555512_0_2" index="2" speed="19.44" length="0.29" shape="1955.93,37.90 1956.15,37.82"/>
    </edge>
    <edge id=":1855731373_0" function="internal">
        <lane id=":1855731373_0_0" index="0" speed="8.33" length="0.29" shape="824.60,562.35 824.58,562.08"/>
        <lane id=":1855731373_0_1" index="1" speed="8.33" length="0.29" shape="827.79,562.13 827.77,561.82"/>
    </edge>
    <edge id=":1898860524_0" function="internal">
        <lane id=":1898860524_0_0" index="0" speed="19.44" length="0.98" shape="2080.66,-7.92 2081.14,-7.99 2081.47,-8.01 2081.80,-8.01 2082.28,-7.98"/>
        <lane id=":1898860524_0_1" index="1" speed="19.44" length="0.98" shape="2081.11,-4.75 2081.39,-4.79 2081.59,-4.81 2081.79,-4.81 2082.08,-4.79"/>
        <lane id=":1898860524_0_2" index="2" speed="19.44" length="0.98" shape="2081.55,-1.58 2081.65,-1.60 2081.71,-1.60 2081.78,-1.60 2081.88,-1.60"/>
    </edge>
    <edge id=":1901583789_0" function="internal">
        <lane id=":1901583789_0_0" index="0" speed="18.06" length="2.25" shape="1010.37,166.12 1011.04,166.52 1011.47,166.85 1011.85,167.25 1012.42,167.80"/>
        <lane id=":1901583789_0_1" index="1" speed="18.06" length="2.25" shape="1008.87,168.95 1009.33,169.23 1009.60,169.47 1009.85,169.76 1010.23,170.14"/>
    </edge>
    <edge id=":1901583832_0" function="internal">
        <lane id=":1901583832_0_0" index="0" speed="19.44" length="3.00" shape="952.92,155.81 955.90,155.60"/>
        <lane id=":1901583832_0_1" index="1" speed="19.44" length="3.00" shape="953.14,159.00 956.13,158.79"/>
        <lane id=":1901583832_0_2" index="2" speed="19.44" length="3.00" shape="953.35,162.19 956.36,161.99"/>
    </edge>
    <edge id=":1901583832_3" function="internal">
        <lane id=":1901583832_3_0" index="0" speed="9.33" length="5.74" shape="953.35,162.19 958.83,160.49"/>
    </edge>
    <edge id=":1901583832_4" function="internal">
        <lane id=":1901583832_4_0" index="0" speed="7.86" length="3.98" shape="953.35,162.19 954.52,162.14 955.33,162.24 956.09,162.55 957.08,163.17"/>
    </edge>
    <edge id=":2296636206_0" function="internal">
        <lane id=":2296636206_0_0" index="0" speed="19.44" length="0.28" shape="396.26,194.81 396.47,194.80"/>
        <lane id=":2296636206_0_1" index="1" speed="19.44" length="0.28" shape="396.42,198.01 396.70,197.99"/>
        <lane id=":2296636206_0_2" index="2" speed="19.44" length="0.28" shape="396.58,201.20 396.93,201.18"/>
    </edge>
    <edge id=":2296638087_0" function="internal">
        <lane id=":2296638087_0_0" index="0" speed="19.44" length="0.30" shape="1768.23,96.64 1768.32,96.61"/>
        <lane id=":2296638087_0_1" index="1" speed="19.44" length="0.30" shape="1769.10,99.72 1769.38,99.63"/>
        <lane id=":2296638087_0_2" index="2" speed="19.44" length="0.30" shape="1769.97,102.80 1770.44,102.65"/>
    </edge>
    <edge id=":2296638089_0" function="internal">
        <lane id=":2296638089_0_0" index="0" speed="19.44" length="0.30" shape="588.52,181.06 588.82,181.04"/>
        <lane id=":2296638089_0_1" index="1" speed="19.44" length="0.30" shape="588.73,184.26 589.03,184.24"/>
        <lane id=":2296638089_0_2" index="2" speed="19.44" length="0.30" shape="588.95,187.45 589.25,187.43"/>
    </edge>
    <edge id=":2296638091_0" function="internal">
        <lane id=":2296638091_0_0" index="0" speed="18.06" length="1.34" shape="962.95,163.17 963.12,163.28 963.24,163.34 963.37,163.37 963.57,163.41"/>
        <lane id=":2296638091_0_1" index="1" speed="8.73" length="1.34" shape="961.21,165.85 961.71,166.17 962.07,166.35 962.47,166.46 963.05,166.57"/>
    </edge>
    <edge id=":2296638095_0" function="internal">
        <lane id=":2296638095_0_0" index="0" speed="19.44" length="0.30" shape="1478.09,119.20 1478.41,119.18"/>
        <lane id=":2296638095_0_1" index="1" speed="19.44" length="0.30" shape="1478.32,122.39 1478.62,122.37"/>
        <lane id=":2296638095_0_2" index="2" speed="19.44" length="0.30" shape="1478.55,125.58 1478.83,125.56"/>
    </edge>
    <edge id=":2296638096_0" function="internal">
        <lane id=":2296638096_0_0" index="0" speed="18.06" length="0.69" shape="968.13,164.15 968.23,164.17 968.30,164.17 968.37,164.17 968.47,164.17"/>
        <lane id=":2296638096_0_1" index="1" speed="18.06" length="0.69" shape="967.61,167.31 967.92,167.36 968.13,167.38 968.34,167.38 968.64,167.37"/>
    </edge>
    <edge id=":2296638102_0" function="internal">
        <lane id=":2296638102_0_0" index="0" speed="19.44" length="3.87" shape="2068.32,-6.05 2069.58,-6.42 2070.47,-6.57 2071.38,-6.65 2072.69,-6.80"/>
        <lane id=":2296638102_0_1" index="1" speed="19.44" length="3.87" shape="2069.32,-3.02 2070.42,-3.33 2071.20,-3.45 2071.99,-3.51 2073.13,-3.63"/>
        <lane id=":2296638102_0_2" index="2" speed="19.44" length="3.87" shape="2070.33,0.02 2071.27,-0.24 2071.93,-0.33 2072.61,-0.36 2073.58,-0.46"/>
    </edge>
    <edge id=":2296649753_0" function="internal">
        <lane id=":2296649753_0_0" index="0" speed="8.33" length="3.50" shape="851.54,814.74 851.01,813.76 850.62,813.10 850.28,812.42 849.89,811.38"/>
        <lane id=":2296649753_0_1" index="1" speed="8.33" length="3.50" shape="854.39,813.28 853.92,812.44 853.58,811.87 853.27,811.28 852.93,810.38"/>
    </edge>
    <edge id=":2331227868_0" function="internal">
        <lane id=":2331227868_0_0" index="0" speed="19.44" length="0.19" shape="788.23,167.16 788.53,167.13"/>
        <lane id=":2331227868_0_1" index="1" speed="19.44" length="0.19" shape="788.63,170.33 788.81,170.32"/>
        <lane id=":2331227868_0_2" index="2" speed="19.44" length="0.19" shape="789.03,173.51 789.09,173.50"/>
    </edge>
    <edge id=":2331227892_0" function="internal">
        <lane id=":2331227892_0_0" index="0" speed="19.44" length="0.15" shape="364.26,196.40 364.48,196.39"/>
        <lane id=":2331227892_0_1" index="1" speed="19.44" length="0.15" shape="364.49,199.59 364.62,199.58"/>
        <lane id=":2331227892_0_2" index="2" speed="19.44" length="0.15" shape="364.72,202.78 364.76,202.78"/>
    </edge>
    <edge id=":2331227901_0" function="internal">
        <lane id=":2331227901_0_0" index="0" speed="19.44" length="0.29" shape="571.43,182.20 571.76,182.17"/>
        <lane id=":2331227901_0_1" index="1" speed="19.44" length="0.29" shape="571.68,185.39 571.97,185.37"/>
        <lane id=":2331227901_0_2" index="2" speed="19.44" length="0.29" shape="571.92,188.58 572.18,188.56"/>
    </edge>
    <edge id=":2331227907_0" function="internal">
        <lane id=":2331227907_0_0" index="0" speed="19.44" length="0.30" shape="815.70,193.99 815.42,194.01"/>
        <lane id=":2331227907_0_1" index="1" speed="19.44" length="0.30" shape="815.48,190.80 815.19,190.82"/>
        <lane id=":2331227907_0_2" index="2" speed="19.44" length="0.30" shape="815.27,187.61 814.95,187.63"/>
    </edge>
    <edge id=":2331227910_0" function="internal">
        <lane id=":2331227910_0_0" index="0" speed="19.44" length="0.30" shape="601.60,209.02 601.29,209.05"/>
        <lane id=":2331227910_0_1" index="1" speed="19.44" length="0.30" shape="601.37,205.83 601.07,205.85"/>
        <lane id=":2331227910_0_2" index="2" speed="19.44" length="0.30" shape="601.15,202.64 600.85,202.66"/>
    </edge>
    <edge id=":2331227942_0" function="internal">
        <lane id=":2331227942_0_0" index="0" speed="19.44" length="0.30" shape="369.08,196.18 369.36,196.17"/>
        <lane id=":2331227942_0_1" index="1" speed="19.44" length="0.30" shape="369.22,199.38 369.52,199.36"/>
        <lane id=":2331227942_0_2" index="2" speed="19.44" length="0.30" shape="369.37,202.57 369.68,202.56"/>
    </edge>
    <edge id=":2331227949_0" function="internal">
        <lane id=":2331227949_0_0" index="0" speed="19.44" length="0.30" shape="1028.46,179.66 1028.17,179.68"/>
        <lane id=":2331227949_0_1" index="1" speed="19.44" length="0.30" shape="1028.24,176.47 1027.94,176.49"/>
        <lane id=":2331227949_0_2" index="2" speed="19.44" length="0.30" shape="1028.01,173.28 1027.71,173.30"/>
    </edge>
    <edge id=":2331227955_0" function="internal">
        <lane id=":2331227955_0_0" index="0" speed="19.44" length="0.28" shape="783.54,167.75 783.63,167.74"/>
        <lane id=":2331227955_0_1" index="1" speed="19.44" length="0.28" shape="783.76,170.94 784.03,170.91"/>
        <lane id=":2331227955_0_2" index="2" speed="19.44" length="0.28" shape="783.97,174.13 784.43,174.09"/>
    </edge>
    <edge id=":2331227986_0" function="internal">
        <lane id=":2331227986_0_0" index="0" speed="19.44" length="0.30" shape="565.24,182.67 565.52,182.65"/>
        <lane id=":2331227986_0_1" index="1" speed="19.44" length="0.30" shape="565.46,185.86 565.76,185.84"/>
        <lane id=":2331227986_0_2" index="2" speed="19.44" length="0.30" shape="565.69,189.05 566.01,189.03"/>
    </edge>
    <edge id=":2331228011_0" function="internal">
        <lane id=":2331228011_0_0" index="0" speed="19.44" length="0.30" shape="1014.31,151.45 1014.62,151.43"/>
        <lane id=":2331228011_0_1" index="1" speed="19.44" length="0.30" shape="1014.54,154.64 1014.84,154.62"/>
        <lane id=":2331228011_0_2" index="2" speed="19.44" length="0.30" shape="1014.77,157.84 1015.05,157.82"/>
    </edge>
    <edge id=":2362524100_0" function="internal">
        <lane id=":2362524100_0_0" index="0" speed="19.44" length="0.30" shape="1237.15,135.84 1237.47,135.82"/>
        <lane id=":2362524100_0_1" index="1" speed="19.44" length="0.30" shape="1237.39,139.04 1237.68,139.01"/>
        <lane id=":2362524100_0_2" index="2" speed="19.44" length="0.30" shape="1237.63,142.23 1237.90,142.21"/>
    </edge>
    <edge id=":2362524103_0" function="internal">
        <lane id=":2362524103_0_0" index="0" speed="19.44" length="0.16" shape="1457.07,120.74 1457.32,120.72"/>
        <lane id=":2362524103_0_1" index="1" speed="19.44" length="0.16" shape="1457.41,123.92 1457.55,123.91"/>
        <lane id=":2362524103_0_2" index="2" speed="19.44" length="0.16" shape="1457.74,127.11 1457.79,127.10"/>
    </edge>
    <edge id=":2368287593_0" function="internal">
        <lane id=":2368287593_0_0" index="0" speed="19.44" length="0.31" shape="1750.26,100.13 1750.47,100.11"/>
        <lane id=":2368287593_0_1" index="1" speed="19.44" length="0.31" shape="1750.50,103.32 1750.81,103.29"/>
        <lane id=":2368287593_0_2" index="2" speed="19.44" length="0.31" shape="1750.75,106.51 1751.15,106.47"/>
    </edge>
    <edge id=":2368299995_0" function="internal">
        <lane id=":2368299995_0_0" index="0" speed="19.44" length="0.30" shape="1655.57,107.40 1655.87,107.38"/>
        <lane id=":2368299995_0_1" index="1" speed="19.44" length="0.30" shape="1655.82,110.59 1656.12,110.57"/>
        <lane id=":2368299995_0_2" index="2" speed="19.44" length="0.30" shape="1656.06,113.78 1656.36,113.76"/>
    </edge>
    <edge id=":2368304061_0" function="internal">
        <lane id=":2368304061_0_0" index="0" speed="19.44" length="0.17" shape="790.84,195.83 790.58,195.85"/>
        <lane id=":2368304061_0_1" index="1" speed="19.44" length="0.17" shape="790.60,192.64 790.45,192.65"/>
        <lane id=":2368304061_0_2" index="2" speed="19.44" length="0.17" shape="790.37,189.45 790.31,189.45"/>
    </edge>
    <edge id=":25038483_0" function="internal">
        <lane id=":25038483_0_0" index="0" speed="8.33" length="3.75" shape="841.31,785.27 840.99,784.10 840.89,783.27 840.89,782.43 840.82,781.21"/>