<?xml version="1.0" encoding="UTF-8"?>

<!-- generated on ter 26 nov 2019 20:41:24 -03 by Eclipse SUMO netedit Version 1.2.0
<configuration xmlns:xsi="http://www.w3.org/2001/XMLSchema-instance" xsi:noNamespaceSchemaLocation="http://sumo.dlr.de/xsd/netconvertConfiguration.xsd">

    <input>
        <sumo-net-file value="/home/andre/VSIMRTI/vsimrti19.1/vsimrti/scenarios/SBRC/MAPA/ipanema.net.xml"/>
    </input>

    <output>
        <output-file value="/home/andre/VSIMRTI/vsimrti19.1/vsimrti/scenarios/SBRC/MAPA/ipanema.net.xml"/>
    </output>

    <processing>
        <geometry.max-grade.fix value="false"/>
        <offset.disable-normalization value="true"/>
        <lefthand value="false"/>
    </processing>

    <junctions>
        <no-turnarounds value="true"/>
        <junctions.corner-detail value="5"/>
        <junctions.limit-turn-speed value="5.5"/>
        <rectangular-lane-cut value="false"/>
    </junctions>

    <pedestrian>
        <walkingareas value="false"/>
    </pedestrian>

</configuration>
-->

<net version="1.1" junctionCornerDetail="5" limitTurnSpeed="5.50" xmlns:xsi="http://www.w3.org/2001/XMLSchema-instance" xsi:noNamespaceSchemaLocation="http://sumo.dlr.de/xsd/net_file.xsd">

    <location netOffset="-682964.78,-7456682.16" convBoundary="708.37,153.14,1112.28,482.38" origBoundary="682964.78,7456682.16,685060.02,7457548.29" projParameter="!"/>

    <edge id=":1345380563_0" function="internal">
        <lane id=":1345380563_0_0" index="0" speed="18.06" length="0.71" shape="1006.45,164.17 1006.75,164.26 1006.95,164.32 1007.15,164.41 1007.43,164.56"/>
        <lane id=":1345380563_0_1" index="1" speed="18.06" length="0.71" shape="1005.60,167.26 1005.70,167.29 1005.77,167.31 1005.84,167.34 1005.93,167.39"/>
    </edge>
    <edge id=":1345381151_0" function="internal">
        <lane id=":1345381151_0_0" index="0" speed="19.44" length="3.00" shape="805.81,165.60 808.87,165.37"/>
        <lane id=":1345381151_0_1" index="1" speed="19.44" length="3.00" shape="806.09,168.79 809.08,168.56"/>
        <lane id=":1345381151_0_2" index="2" speed="19.44" length="3.00" shape="806.37,171.98 809.29,171.75"/>
    </edge>
    <edge id=":1345381151_3" function="internal">
        <lane id=":1345381151_3_0" index="0" speed="10.75" length="4.69" shape="803.94,170.35 805.31,169.44 806.33,168.94 807.45,168.70 809.08,168.56"/>
        <lane id=":1345381151_3_1" index="1" speed="8.99" length="4.69" shape="805.76,172.98 806.70,172.36 807.40,172.02 808.17,171.85 809.29,171.75"/>
    </edge>
    <edge id=":1345381153_0" function="internal">
        <lane id=":1345381153_0_0" index="0" speed="8.33" length="1.21" shape="799.57,173.77 799.88,173.33 800.11,173.04 800.40,172.80 800.84,172.49"/>
        <lane id=":1345381153_0_1" index="1" speed="8.33" length="1.21" shape="802.23,175.55 802.33,175.40 802.41,175.31 802.51,175.23 802.65,175.12"/>
    </edge>
    <edge id=":1587555227_0" function="internal">
        <lane id=":1587555227_0_0" index="0" speed="8.33" length="0.29" shape="1038.63,432.34 1038.66,432.61"/>
        <lane id=":1587555227_0_1" index="1" speed="8.33" length="0.29" shape="1035.44,432.58 1035.47,432.89"/>
    </edge>
    <edge id=":1587555228_0" function="internal">
        <lane id=":1587555228_0_0" index="0" speed="8.33" length="17.81" shape="815.49,434.06 813.80,416.34"/>
        <lane id=":1587555228_0_1" index="1" speed="8.33" length="17.81" shape="818.68,433.77 816.98,416.04"/>
    </edge>
    <edge id=":1587555228_2" function="internal">
        <lane id=":1587555228_2_0" index="0" speed="7.24" length="11.80" shape="818.68,433.77 818.69,429.89 819.52,427.07 821.18,425.33 823.67,424.65"/>
    </edge>
    <edge id=":1587555228_3" function="internal">
        <lane id=":1587555228_3_0" index="0" speed="6.42" length="9.04" shape="818.68,433.77 818.81,431.28 819.71,429.47 821.38,428.32 823.83,427.84"/>
    </edge>
    <edge id=":1587555228_4" function="internal">
        <lane id=":1587555228_4_0" index="0" speed="6.43" length="9.03" shape="808.70,422.33 811.14,421.82 812.80,420.65 813.69,418.83 813.80,416.34"/>
    </edge>
    <edge id=":1587555228_5" function="internal">
        <lane id=":1587555228_5_0" index="0" speed="16.67" length="14.79" shape="808.70,422.33 823.51,421.45"/>
        <lane id=":1587555228_5_1" index="1" speed="16.67" length="14.79" shape="808.90,425.52 823.67,424.65"/>
        <lane id=":1587555228_5_2" index="2" speed="16.67" length="14.79" shape="809.10,428.71 823.83,427.84"/>
    </edge>
    <edge id=":1587555231_0" function="internal">
        <lane id=":1587555231_0_0" index="0" speed="16.67" length="0.28" shape="1013.75,412.01 1013.97,412.00"/>
        <lane id=":1587555231_0_1" index="1" speed="16.67" length="0.28" shape="1013.91,415.21 1014.19,415.19"/>
        <lane id=":1587555231_0_2" index="2" speed="16.67" length="0.28" shape="1014.06,418.40 1014.41,418.38"/>
    </edge>
    <edge id=":1587555241_0" function="internal">
        <lane id=":1587555241_0_0" index="0" speed="6.54" length="9.07" shape="1036.58,404.83 1037.12,407.25 1038.30,408.92 1040.13,409.85 1042.62,410.04"/>
    </edge>
    <edge id=":1587555241_1" function="internal">
        <lane id=":1587555241_1_0" index="0" speed="8.03" length="14.21" shape="1033.39,405.07 1034.23,408.86 1036.08,411.49 1038.95,412.94 1042.83,413.23"/>
    </edge>
    <edge id=":1587555241_2" function="internal">
        <lane id=":1587555241_2_0" index="0" speed="8.33" length="17.97" shape="1033.39,405.07 1034.28,410.28 1035.65,413.72 1037.01,417.16 1037.89,422.37"/>
    </edge>
    <edge id=":1587555241_3" function="internal">
        <lane id=":1587555241_3_0" index="0" speed="16.67" length="14.41" shape="1028.24,411.02 1042.62,410.04"/>
        <lane id=":1587555241_3_1" index="1" speed="16.67" length="14.41" shape="1028.46,414.21 1042.83,413.23"/>
        <lane id=":1587555241_3_2" index="2" speed="16.67" length="14.41" shape="1028.68,417.40 1043.05,416.42"/>
    </edge>
    <edge id=":1587555241_6" function="internal">
        <lane id=":1587555241_6_0" index="0" speed="6.53" length="9.07" shape="1028.68,417.40 1031.16,417.58 1032.99,418.51 1034.17,420.18 1034.70,422.60"/>
    </edge>
    <edge id=":1587555243_0" function="internal">
        <lane id=":1587555243_0_0" index="0" speed="16.67" length="0.30" shape="1044.05,409.94 1044.36,409.92"/>
        <lane id=":1587555243_0_1" index="1" speed="16.67" length="0.30" shape="1044.26,413.13 1044.56,413.11"/>
        <lane id=":1587555243_0_2" index="2" speed="16.67" length="0.30" shape="1044.48,416.32 1044.77,416.30"/>
    </edge>
    <edge id=":1587555254_0" function="internal">
        <lane id=":1587555254_0_0" index="0" speed="8.33" length="0.30" shape="1036.37,401.90 1036.39,402.20"/>
        <lane id=":1587555254_0_1" index="1" speed="8.33" length="0.30" shape="1033.17,402.13 1033.20,402.44"/>
    </edge>
    <edge id=":1587555298_0" function="internal">
        <lane id=":1587555298_0_0" index="0" speed="16.67" length="0.31" shape="1036.34,305.18 1036.23,305.19"/>
        <lane id=":1587555298_0_1" index="1" speed="16.67" length="0.31" shape="1036.11,301.99 1035.81,302.02"/>
        <lane id=":1587555298_0_2" index="2" speed="16.67" length="0.31" shape="1035.89,298.79 1035.38,298.85"/>
    </edge>
    <edge id=":1587555304_0" function="internal">
        <lane id=":1587555304_0_0" index="0" speed="8.33" length="0.30" shape="1027.62,282.50 1027.65,282.78"/>
        <lane id=":1587555304_0_1" index="1" speed="8.33" length="0.30" shape="1024.43,282.74 1024.46,283.05"/>
    </edge>
    <edge id=":1587555381_0" function="internal">
        <lane id=":1587555381_0_0" index="0" speed="19.44" length="0.30" shape="995.43,181.97 995.12,181.99"/>
        <lane id=":1587555381_0_1" index="1" speed="19.44" length="0.30" shape="995.21,178.78 994.91,178.80"/>
        <lane id=":1587555381_0_2" index="2" speed="19.44" length="0.30" shape="994.98,175.59 994.70,175.61"/>
    </edge>
    <edge id=":1587555398_0" function="internal">
        <lane id=":1587555398_0_0" index="0" speed="19.44" length="0.15" shape="1022.21,180.10 1022.05,180.11"/>
        <lane id=":1587555398_0_1" index="1" speed="19.44" length="0.15" shape="1021.98,176.91 1021.83,176.92"/>
        <lane id=":1587555398_0_2" index="2" speed="19.44" length="0.15" shape="1021.76,173.72 1021.61,173.73"/>
    </edge>
    <edge id=":1587555422_0" function="internal">
        <lane id=":1587555422_0_0" index="0" speed="19.44" length="0.30" shape="1019.75,151.09 1020.04,151.07"/>
        <lane id=":1587555422_0_1" index="1" speed="19.44" length="0.30" shape="1019.96,154.28 1020.26,154.26"/>
        <lane id=":1587555422_0_2" index="2" speed="19.44" length="0.30" shape="1020.18,157.47 1020.49,157.45"/>
    </edge>
    <edge id=":1901583789_0" function="internal">
        <lane id=":1901583789_0_0" index="0" speed="18.06" length="1.71" shape="1010.37,166.12 1010.70,166.30 1010.91,166.43 1011.11,166.59 1011.39,166.84"/>
        <lane id=":1901583789_0_1" index="1" speed="18.06" length="1.71" shape="1008.87,168.95 1009.41,169.28 1009.74,169.58 1010.03,169.91 1010.49,170.38"/>
    </edge>
    <edge id=":1901583832_0" function="internal">
        <lane id=":1901583832_0_0" index="0" speed="19.44" length="3.00" shape="952.92,155.81 955.90,155.60"/>
        <lane id=":1901583832_0_1" index="1" speed="19.44" length="3.00" shape="953.14,159.00 956.13,158.79"/>
        <lane id=":1901583832_0_2" index="2" speed="19.44" length="3.00" shape="953.35,162.19 956.36,161.99"/>
    </edge>
    <edge id=":1901583832_3" function="internal">
        <lane id=":1901583832_3_0" index="0" speed="9.33" length="5.74" shape="953.35,162.19 958.83,160.49"/>
    </edge>
    <edge id=":1901583832_4" function="internal">
        <lane id=":1901583832_4_0" index="0" speed="7.85" length="3.98" shape="953.35,162.19 954.52,162.14 955.33,162.24 956.09,162.55 957.08,163.17"/>
    </edge>
    <edge id=":2296638091_0" function="internal">
        <lane id=":2296638091_0_0" index="0" speed="18.06" length="1.34" shape="962.95,163.17 963.11,163.28 963.24,163.34 963.37,163.37 963.56,163.41"/>
        <lane id=":2296638091_0_1" index="1" speed="8.72" length="1.34" shape="961.20,165.85 961.70,166.17 962.07,166.35 962.47,166.46 963.05,166.57"/>
    </edge>
    <edge id=":2296638096_0" function="internal">
        <lane id=":2296638096_0_0" index="0" speed="18.06" length="0.69" shape="968.13,164.15 968.23,164.17 968.30,164.17 968.37,164.17 968.47,164.17"/>
        <lane id=":2296638096_0_1" index="1" speed="18.06" length="0.69" shape="967.61,167.31 967.92,167.36 968.13,167.38 968.34,167.38 968.65,167.36"/>
    </edge>
    <edge id=":2331227868_0" function="internal">
        <lane id=":2331227868_0_0" index="0" speed="19.44" length="0.19" shape="788.24,167.16 788.53,167.13"/>
        <lane id=":2331227868_0_1" index="1" speed="19.44" length="0.19" shape="788.63,170.34 788.81,170.32"/>
        <lane id=":2331227868_0_2" index="2" speed="19.44" length="0.19" shape="789.03,173.51 789.09,173.51"/>
    </edge>
    <edge id=":2331227907_0" function="internal">
        <lane id=":2331227907_0_0" index="0" speed="19.44" length="0.30" shape="815.70,193.99 815.43,194.01"/>
        <lane id=":2331227907_0_1" index="1" speed="19.44" length="0.30" shape="815.49,190.80 815.19,190.82"/>
        <lane id=":2331227907_0_2" index="2" speed="19.44" length="0.30" shape="815.27,187.61 814.95,187.63"/>
    </edge>
    <edge id=":2331227949_0" function="internal">
        <lane id=":2331227949_0_0" index="0" speed="19.44" length="0.30" shape="1028.47,179.66 1028.17,179.68"/>
        <lane id=":2331227949_0_1" index="1" speed="19.44" length="0.30" shape="1028.24,176.47 1027.94,176.49"/>
        <lane id=":2331227949_0_2" index="2" speed="19.44" length="0.30" shape="1028.01,173.28 1027.72,173.30"/>
    </edge>
    <edge id=":2331227955_0" function="internal">
        <lane id=":2331227955_0_0" index="0" speed="19.44" length="0.25" shape="783.53,167.75 783.61,167.74"/>
        <lane id=":2331227955_0_1" index="1" speed="19.44" length="0.25" shape="783.76,170.94 784.01,170.92"/>
        <lane id=":2331227955_0_2" index="2" speed="19.44" length="0.25" shape="784.00,174.13 784.41,174.09"/>
    </edge>
    <edge id=":2331228011_0" function="internal">
        <lane id=":2331228011_0_0" index="0" speed="19.44" length="0.30" shape="1014.31,151.45 1014.63,151.43"/>
        <lane id=":2331228011_0_1" index="1" speed="19.44" length="0.30" shape="1014.54,154.64 1014.84,154.62"/>
        <lane id=":2331228011_0_2" index="2" speed="19.44" length="0.30" shape="1014.77,157.83 1015.05,157.81"/>
    </edge>
    <edge id=":2368304061_0" function="internal">
        <lane id=":2368304061_0_0" index="0" speed="19.44" length="0.17" shape="790.84,195.83 790.59,195.84"/>
        <lane id=":2368304061_0_1" index="1" speed="19.44" length="0.17" shape="790.60,192.64 790.45,192.65"/>
        <lane id=":2368304061_0_2" index="2" speed="19.44" length="0.17" shape="790.37,189.45 790.32,189.45"/>
    </edge>
    <edge id=":25038515_0" function="internal">
        <lane id=":25038515_0_0" index="0" speed="6.58" length="9.14" shape="805.26,328.18 804.67,325.77 803.44,324.10 801.57,323.20 799.06,323.04"/>
    </edge>
    <edge id=":25038515_1" function="internal">
        <lane id=":25038515_1_0" index="0" speed="8.06" length="14.24" shape="808.44,327.88 807.52,324.10 805.61,321.51 802.71,320.09 798.81,319.85"/>
    </edge>
    <edge id=":25038515_2" function="internal">
        <lane id=":25038515_2_0" index="0" speed="8.33" length="17.94" shape="808.44,327.88 807.43,322.70 805.99,319.29 804.56,315.89 803.61,310.70"/>
    </edge>
    <edge id=":25038515_3" function="internal">
        <lane id=":25038515_3_0" index="0" speed="16.67" length="14.46" shape="813.46,321.93 799.06,323.04"/>
        <lane id=":25038515_3_1" index="1" speed="16.67" length="14.46" shape="813.23,318.74 798.81,319.85"/>
        <lane id=":25038515_3_2" index="2" speed="16.67" length="14.46" shape="813.00,315.55 798.56,316.66"/>
    </edge>
    <edge id=":25038515_6" function="internal">
        <lane id=":25038515_6_0" index="0" speed="6.58" length="9.15" shape="813.00,315.55 810.47,315.38 808.59,314.47 807.36,312.82 806.79,310.43"/>
    </edge>
    <edge id=":25038516_0" function="internal">
        <lane id=":25038516_0_0" index="0" speed="6.79" length="9.43" shape="1035.35,305.31 1032.84,306.00 1031.10,307.30 1030.13,309.21 1029.95,311.72"/>
    </edge>
    <edge id=":25038516_1" function="internal">
        <lane id=":25038516_1_0" index="0" speed="16.67" length="14.22" shape="1035.35,305.31 1021.03,306.99"/>
        <lane id=":25038516_1_1" index="1" speed="16.67" length="14.22" shape="1034.92,302.14 1020.80,303.80"/>
        <lane id=":25038516_1_2" index="2" speed="16.67" length="14.22" shape="1034.50,298.97 1020.57,300.61"/>
    </edge>
    <edge id=":25038516_4" function="internal">
        <lane id=":25038516_4_0" index="0" speed="8.33" length="17.47" shape="1028.64,294.28 1029.95,311.72"/>
        <lane id=":25038516_4_1" index="1" speed="8.33" length="17.47" shape="1025.45,294.56 1026.75,311.95"/>
    </edge>
    <edge id=":25038516_6" function="internal">
        <lane id=":25038516_6_0" index="0" speed="7.26" length="11.63" shape="1025.45,294.56 1025.45,298.45 1024.67,301.29 1023.12,303.07 1020.80,303.80"/>
    </edge>
    <edge id=":25038516_7" function="internal">
        <lane id=":25038516_7_0" index="0" speed="6.43" length="8.89" shape="1025.45,294.56 1025.33,297.06 1024.48,298.90 1022.89,300.08 1020.57,300.61"/>
    </edge>
    <edge id=":25038521_0" function="internal">
        <lane id=":25038521_0_0" index="0" speed="4.56" length="4.03" shape="793.95,197.67 793.73,196.78 793.16,196.18 792.23,195.86 790.94,195.82"/>
    </edge>
    <edge id=":25038521_1" function="internal">
        <lane id=":25038521_1_0" index="0" speed="5.52" length="6.40" shape="796.97,192.38 796.12,191.99 794.20,192.10 792.10,192.42 790.70,192.63"/>
    </edge>
    <edge id=":25038521_2" function="internal">
        <lane id=":25038521_2_0" index="0" speed="8.33" length="10.09" shape="796.97,192.38 796.37,189.30 795.31,187.22 794.52,185.17 794.76,182.17"/>
        <lane id=":25038521_2_1" index="1" speed="8.33" length="10.09" shape="796.97,192.38 796.88,189.57 796.91,187.62 797.19,185.71 797.85,182.98"/>
    </edge>
    <edge id=":25038521_4" function="internal">
        <lane id=":25038521_4_0" index="0" speed="19.44" length="12.07" shape="802.98,194.93 790.94,195.82"/>
        <lane id=":25038521_4_1" index="1" speed="19.44" length="12.07" shape="802.74,191.74 790.70,192.63"/>
        <lane id=":25038521_4_2" index="2" speed="19.44" length="12.07" shape="802.51,188.55 790.47,189.44"/>
    </edge>
    <edge id=":25038522_0" function="internal">
        <lane id=":25038522_0_0" index="0" speed="5.39" length="8.13" shape="1021.91,180.12 1017.02,173.63"/>
    </edge>
    <edge id=":25038522_1" function="internal">
        <lane id=":25038522_1_0" index="0" speed="19.44" length="14.55" shape="1021.91,180.12 1007.39,181.13"/>
        <lane id=":25038522_1_1" index="1" speed="19.44" length="14.55" shape="1021.68,176.93 1007.17,177.94"/>
        <lane id=":25038522_1_2" index="2" speed="19.44" length="14.55" shape="1021.46,173.74 1006.94,174.75"/>
    </edge>
    <edge id=":25038522_4" function="internal">
        <lane id=":25038522_4_0" index="0" speed="13.20" length="7.45" shape="1011.46,166.91 1013.35,168.70 1014.55,170.01 1015.61,171.45 1017.02,173.63"/>
        <lane id=":25038522_4_1" index="1" speed="13.20" length="7.45" shape="1010.63,170.51 1011.92,171.79 1012.70,172.75 1013.37,173.82 1014.33,175.36"/>
    </edge>
    <edge id=":3738891767_0" function="internal">
        <lane id=":3738891767_0_0" index="0" speed="8.33" length="0.30" shape="794.72,207.65 794.69,207.34"/>
        <lane id=":3738891767_0_1" index="1" speed="8.33" length="0.30" shape="797.91,207.37 797.88,207.09"/>
    </edge>
    <edge id=":3738891771_0" function="internal">
        <lane id=":3738891771_0_0" index="0" speed="8.33" length="2.68" shape="793.96,197.98 793.95,197.77"/>
        <lane id=":3738891771_0_1" index="1" speed="8.33" length="2.68" shape="797.15,197.73 796.98,192.58"/>
    </edge>
    <edge id=":3738891774_0" function="internal">
        <lane id=":3738891774_0_0" index="0" speed="19.44" length="0.27" shape="781.86,196.21 781.68,196.22"/>
        <lane id=":3738891774_0_1" index="1" speed="19.44" length="0.27" shape="781.73,193.02 781.46,193.03"/>
        <lane id=":3738891774_0_2" index="2" speed="19.44" length="0.27" shape="781.59,189.82 781.24,189.84"/>
    </edge>
    <edge id=":3738891775_0" function="internal">
        <lane id=":3738891775_0_0" index="0" speed="8.33" length="3.70" shape="1018.76,178.62 1019.15,179.76 1019.45,180.53 1019.67,181.32 1019.82,182.51"/>
        <lane id=":3738891775_0_1" index="1" speed="8.33" length="3.70" shape="1015.70,179.55 1016.03,180.49 1016.29,181.13 1016.49,181.78 1016.63,182.76"/>
    </edge>
    <edge id=":3738891778_0" function="internal">
        <lane id=":3738891778_0_0" index="0" speed="8.33" length="1.08" shape="795.06,180.99 795.19,180.52 795.30,180.21 795.46,179.92 795.72,179.52"/>
        <lane id=":3738891778_0_1" index="1" speed="8.33" length="1.08" shape="798.16,181.79 798.20,181.63 798.24,181.53 798.29,181.43 798.38,181.30"/>
    </edge>
    <edge id=":3738891781_0" function="internal">
        <lane id=":3738891781_0_0" index="0" speed="8.33" length="3.92" shape="1017.09,173.74 1017.72,174.85 1018.01,175.69 1018.20,176.57 1018.52,177.83"/>
        <lane id=":3738891781_0_1" index="1" speed="8.33" length="3.92" shape="1014.40,175.47 1014.89,176.36 1015.09,177.04 1015.21,177.75 1015.46,178.75"/>
    </edge>
    <edge id=":3738891787_0" function="internal">
        <lane id=":3738891787_0_0" index="0" speed="18.06" length="4.06" shape="999.33,162.48 1000.66,162.49 1001.57,162.68 1002.46,163.01 1003.75,163.43"/>
        <lane id=":3738891787_0_1" index="1" speed="18.06" length="4.06" shape="999.50,165.67 1000.54,165.70 1001.23,165.89 1001.91,166.18 1002.91,166.52"/>
    </edge>

    <edge id="119873085_1901583832_25038522_1345380563" from="1345380563" to="1901583789" priority="-1">
        <lane id="119873085_1901583832_25038522_1345380563_0" index="0" speed="18.06" length="3.33" shape="1007.43,164.56 1010.37,166.12"/>
        <lane id="119873085_1901583832_25038522_1345380563_1" index="1" speed="18.06" length="3.33" shape="1005.93,167.39 1008.87,168.95"/>
    </edge>
    <edge id="119873085_1901583832_25038522_1901583789" from="1901583789" to="25038522" priority="-1">
        <lane id="119873085_1901583832_25038522_1901583789_0" index="0" speed="18.06" length="0.15" shape="1011.39,166.84 1011.46,166.91"/>
        <lane id="119873085_1901583832_25038522_1901583789_1" index="1" speed="18.06" length="0.15" shape="1010.49,170.38 1010.63,170.51"/>
    </edge>
    <edge id="119873085_1901583832_25038522_1901583832" from="1901583832" to="2296638091" priority="-1">
        <lane id="119873085_1901583832_25038522_1901583832_0" index="0" speed="18.06" length="4.92" shape="958.83,160.49 962.95,163.17"/>
        <lane id="119873085_1901583832_25038522_1901583832_1" index="1" speed="18.06" length="4.92" shape="957.08,163.17 961.20,165.85"/>
    </edge>
    <edge id="119873085_1901583832_25038522_2296638091" from="2296638091" to="2296638096" priority="-1">
        <lane id="119873085_1901583832_25038522_2296638091_0" index="0" speed="18.06" length="4.62" shape="963.56,163.41 968.13,164.15"/>
        <lane id="119873085_1901583832_25038522_2296638091_1" index="1" speed="18.06" length="4.62" shape="963.05,166.57 967.61,167.31"/>
    </edge>
    <edge id="119873085_1901583832_25038522_2296638096" from="2296638096" to="3738891787" priority="-1">
        <lane id="119873085_1901583832_25038522_2296638096_0" index="0" speed="18.06" length="30.90" shape="968.47,164.17 999.33,162.48"/>
        <lane id="119873085_1901583832_25038522_2296638096_1" index="1" speed="18.06" length="30.90" shape="968.65,167.36 999.50,165.67"/>
    </edge>
    <edge id="119873085_1901583832_25038522_3738891787" from="3738891787" to="1345380563" priority="-1">
        <lane id="119873085_1901583832_25038522_3738891787_0" index="0" speed="18.06" length="2.80" shape="1003.75,163.43 1006.45,164.17"/>
        <lane id="119873085_1901583832_25038522_3738891787_1" index="1" speed="18.06" length="2.80" shape="1002.91,166.52 1005.60,167.26"/>
    </edge>
    <edge id="220553570_1587555228_1587555241_1587555228" from="1587555228" to="1587555231" priority="-1">
        <lane id="220553570_1587555228_1587555241_1587555228_0" index="0" speed="16.67" length="190.47" shape="823.51,421.45 1013.75,412.01"/>
        <lane id="220553570_1587555228_1587555241_1587555228_1" index="1" speed="16.67" length="190.47" shape="823.67,424.65 1013.91,415.21"/>
        <lane id="220553570_1587555228_1587555241_1587555228_2" index="2" speed="16.67" length="190.47" shape="823.83,427.84 1014.06,418.40"/>
    </edge>
    <edge id="220553570_1587555228_1587555241_1587555231" from="1587555231" to="1587555241" priority="-1">
        <lane id="220553570_1587555228_1587555241_1587555231_0" index="0" speed="16.67" length="14.31" shape="1013.97,412.00 1028.24,411.02"/>
        <lane id="220553570_1587555228_1587555241_1587555231_1" index="1" speed="16.67" length="14.31" shape="1014.19,415.19 1028.46,414.21"/>
        <lane id="220553570_1587555228_1587555241_1587555231_2" index="2" speed="16.67" length="14.31" shape="1014.41,418.38 1028.68,417.40"/>
    </edge>
    <edge id="220553570_1587555241_2928075527_1587555241" from="1587555241" to="1587555243" priority="-1">
        <lane id="220553570_1587555241_2928075527_1587555241_0" index="0" speed="16.67" length="1.43" shape="1042.62,410.04 1044.05,409.94"/>
        <lane id="220553570_1587555241_2928075527_1587555241_1" index="1" speed="16.67" length="1.43" shape="1042.83,413.23 1044.26,413.13"/>
        <lane id="220553570_1587555241_2928075527_1587555241_2" index="2" speed="16.67" length="1.43" shape="1043.05,416.42 1044.48,416.32"/>
    </edge>
    <edge id="220553570_1587555241_2928075527_1587555243" from="1587555243" to="1587555249" priority="-1">
        <lane id="220553570_1587555241_2928075527_1587555243_0" index="0" speed="16.67" length="67.55" shape="1044.36,409.92 1111.76,405.57"/>
        <lane id="220553570_1587555241_2928075527_1587555243_1" index="1" speed="16.67" length="67.55" shape="1044.56,413.11 1111.97,408.76"/>
        <lane id="220553570_1587555241_2928075527_1587555243_2" index="2" speed="16.67" length="67.55" shape="1044.77,416.30 1112.18,411.95"/>
    </edge>
    <edge id="220553570_2332497553_1587555228_25038596" from="25038596" to="1587555228" priority="-1">
        <lane id="220553570_2332497553_1587555228_25038596_0" index="0" speed="16.67" length="62.52" shape="746.30,426.24 808.70,422.33"/>
        <lane id="220553570_2332497553_1587555228_25038596_1" index="1" speed="16.67" length="62.52" shape="746.50,429.43 808.90,425.52"/>
        <lane id="220553570_2332497553_1587555228_25038596_2" index="2" speed="16.67" length="62.52" shape="746.70,432.62 809.10,428.71"/>
    </edge>
    <edge id="328458674_1587555351_25038516_1587555298" from="1587555298" to="25038516" priority="-1">
        <lane id="328458674_1587555351_25038516_1587555298_0" index="0" speed="16.67" length="0.89" shape="1036.23,305.19 1035.35,305.31"/>
        <lane id="328458674_1587555351_25038516_1587555298_1" index="1" speed="16.67" length="0.89" shape="1035.81,302.02 1034.92,302.14"/>
        <lane id="328458674_1587555351_25038516_1587555298_2" index="2" speed="16.67" length="0.89" shape="1035.38,298.85 1034.50,298.97"/>
    </edge>
    <edge id="328458674_1587555351_25038516_25038517" from="25038517" to="1587555298" priority="-1">
        <lane id="328458674_1587555351_25038516_25038517_0" index="0" speed="16.67" length="72.72" shape="1108.88,300.10 1036.34,305.18"/>
        <lane id="328458674_1587555351_25038516_25038517_1" index="1" speed="16.67" length="72.72" shape="1108.66,296.91 1036.11,301.99"/>
        <lane id="328458674_1587555351_25038516_25038517_2" index="2" speed="16.67" length="72.72" shape="1108.43,293.72 1035.89,298.79"/>
    </edge>
    <edge id="328458674_25038515_378693785_25038515" from="25038515" to="25038599" priority="-1">
        <lane id="328458674_25038515_378693785_25038515_0" index="0" speed="16.67" length="68.87" shape="799.06,323.04 730.41,328.50"/>
        <lane id="328458674_25038515_378693785_25038515_1" index="1" speed="16.67" length="68.87" shape="798.81,319.85 730.16,325.31"/>
        <lane id="328458674_25038515_378693785_25038515_2" index="2" speed="16.67" length="68.87" shape="798.56,316.66 729.91,322.12"/>
    </edge>
    <edge id="328458674_25038516_25038515_25038516" from="25038516" to="25038515" priority="-1">
        <lane id="328458674_25038516_25038515_25038516_0" index="0" speed="16.67" length="208.11" shape="1021.03,306.99 813.46,321.93"/>
        <lane id="328458674_25038516_25038515_25038516_1" index="1" speed="16.67" length="208.11" shape="1020.80,303.80 813.23,318.74"/>
        <lane id="328458674_25038516_25038515_25038516_2" index="2" speed="16.67" length="208.11" shape="1020.57,300.61 813.00,315.55"/>
    </edge>
    <edge id="370164915_25038522_25038521_1587555381" from="1587555381" to="2331227907" priority="-1">
        <lane id="370164915_25038522_25038521_1587555381_0" index="0" speed="19.44" length="179.82" shape="995.12,181.99 815.70,193.99"/>
        <lane id="370164915_25038522_25038521_1587555381_1" index="1" speed="19.44" length="179.82" shape="994.91,178.80 815.49,190.80"/>
        <lane id="370164915_25038522_25038521_1587555381_2" index="2" speed="19.44" length="179.82" shape="994.70,175.61 815.27,187.61"/>
    </edge>
    <edge id="370164915_25038522_25038521_2331227907" from="2331227907" to="25038521" priority="-1">
        <lane id="370164915_25038522_25038521_2331227907_0" index="0" speed="19.44" length="12.48" shape="815.43,194.01 802.98,194.93"/>
        <lane id="370164915_25038522_25038521_2331227907_1" index="1" speed="19.44" length="12.48" shape="815.19,190.82 802.74,191.74"/>
        <lane id="370164915_25038522_25038521_2331227907_2" index="2" speed="19.44" length="12.48" shape="814.95,187.63 802.51,188.55"/>
    </edge>
    <edge id="370164915_25038522_25038521_25038522" from="25038522" to="1587555381" priority="-1">
        <lane id="370164915_25038522_25038521_25038522_0" index="0" speed="19.44" length="11.99" shape="1007.39,181.13 995.43,181.97"/>
        <lane id="370164915_25038522_25038521_25038522_1" index="1" speed="19.44" length="11.99" shape="1007.17,177.94 995.21,178.78"/>
        <lane id="370164915_25038522_25038521_25038522_2" index="2" speed="19.44" length="11.99" shape="1006.94,174.75 994.98,175.59"/>
    </edge>
    <edge id="370164917_25038523_25038522_1587555398" from="1587555398" to="25038522" priority="-1">
        <lane id="370164917_25038523_25038522_1587555398_0" index="0" speed="19.44" length="0.15" shape="1022.05,180.11 1021.91,180.12"/>
        <lane id="370164917_25038523_25038522_1587555398_1" index="1" speed="19.44" length="0.15" shape="1021.83,176.92 1021.68,176.93"/>
        <lane id="370164917_25038523_25038522_1587555398_2" index="2" speed="19.44" length="0.15" shape="1021.61,173.73 1021.46,173.74"/>
    </edge>
    <edge id="370164917_25038523_25038522_1587555415" from="1587555415" to="2331227949" priority="-1">
        <lane id="370164917_25038523_25038522_1587555415_0" index="0" speed="19.44" length="76.06" shape="1104.33,174.21 1028.47,179.66"/>
        <lane id="370164917_25038523_25038522_1587555415_1" index="1" speed="19.44" length="76.06" shape="1104.10,171.02 1028.24,176.47"/>
        <lane id="370164917_25038523_25038522_1587555415_2" index="2" speed="19.44" length="76.06" shape="1103.87,167.83 1028.01,173.28"/>
    </edge>