<nodes>
	<node id="1587555129" x="684014.6435" y="7457229.4525" z="0.0000" type="traffic_light" />
	<node id="1345380563" x="683969.9584" y="7456850.9655" z="0.0000" type="traffic_light" />
	<node id="1587555249" x="684100.7079" y="7457093.6444" z="0.0000" type="traffic_light" />
	<node id="1587555126" x="684021.5426" y="7457322.2796" z="0.0000" type="traffic_light" />
	<node id="1587555486" x="684615.6019" y="7456797.9518" z="0.0000" type="traffic_light" />
	<node id="25038484" x="684031.1407" y="7457451.3125" z="0.0000" type="priority" />
	<node id="25038483" x="683810.6500" y="7457465.9374" z="0.0000" type="priority" />
	<node id="3738891836" x="684897.0033" y="7456729.9568" z="0.0000" type="traffic_light" />
	<node id="2331227892" x="683329.6170" y="7456886.5425" z="0.0000" type="traffic_light" />
	<node id="2368304061" x="683755.0269" y="7456870.0189" z="0.0000" type="priority" />
	<node id="3738891839" x="684904.8050" y="7456727.3135" z="0.0000" type="priority" />
	<node id="25038515" x="683773.5119" y="7456996.4180" z="0.0000" type="priority" />
	<node id="2296649753" x="683819.2344" y="7457492.0479" z="0.0000" type="traffic_light" />
	<node id="25038633" x="683052.7092" y="7457166.7340" z="0.0000" type="priority" />
	<node id="25038634" x="683041.2410" y="7457048.5002" z="0.0000" type="priority" />
	<node id="25038510" x="684429.9819" y="7457069.7952" z="0.0000" type="priority" />
	<node id="25038598" x="683338.1934" y="7457026.4527" z="0.0000" type="priority" />
	<node id="25038599" x="683554.3091" y="7457011.8213" z="0.0000" type="priority" />
	<node id="25038596" x="683562.1924" y="7457130.9072" z="0.0000" type="priority" />
	<node id="2368287593" x="684715.8757" y="7456790.2521" z="0.0000" type="priority" />
	<node id="25038597" x="683118.3409" y="7457044.1059" z="0.0000" type="priority" />
	<node id="1587555132" x="683793.2261" y="7457232.5924" z="0.0000" type="priority" />
	<node id="1587555254" x="683996.3711" y="7457084.5661" z="0.0000" type="traffic_light" />
	<node id="378694866" x="682970.2115" y="7457052.0339" z="0.0000" type="priority" />
	<node id="1587555097" x="684037.7067" y="7457539.5475" z="0.0000" type="priority" />
	<node id="1587555251" x="684226.2984" y="7457084.8296" z="0.0000" type="traffic_light" />
	<node id="3391965236" x="684220.7169" y="7456964.8957" z="0.0000" type="traffic_light" />
	<node id="25038518" x="684422.1754" y="7456950.8521" z="0.0000" type="priority" />
	<node id="25038516" x="683988.9909" y="7456980.9019" z="0.0000" type="priority" />
	<node id="25038517" x="684207.5484" y="7456965.5776" z="0.0000" type="priority" />
	<node id="1587555512" x="684921.3356" y="7456721.5392" z="0.0000" type="priority" />
	<node id="1901583832" x="683919.7322" y="7456845.8540" z="0.0000" type="priority" />
	<node id="1587555112" x="684025.8879" y="7457380.7268" z="0.0000" type="traffic_light" />
	<node id="50935728" x="683855.1452" y="7457520.4825" z="0.0000" type="priority" />
	<node id="25038595" x="683346.1205" y="7457145.9036" z="0.0000" type="priority" />
	<node id="25038592" x="683128.6098" y="7457162.3321" z="0.0000" type="priority" />
	<node id="2331227942" x="683334.3826" y="7456886.3293" z="0.0000" type="priority" />
	<node id="1855731373" x="683794.1554" y="7457244.0219" z="0.0000" type="traffic_light" />
	<node id="1898860524" x="685046.5572" y="7456682.1646" z="0.0000" type="priority" />
	<node id="378693785" x="682964.7810" y="7457052.3879" z="0.0000" type="priority" />
	<node id="1587555243" x="684009.5122" y="7457100.0769" z="0.0000" type="traffic_light" />
	<node id="25038509" x="684216.4647" y="7457085.6921" z="0.0000" type="priority" />
	<node id="1587555241" x="683997.5860" y="7457100.8874" z="0.0000" type="priority" />
	<node id="25038505" x="684038.3572" y="7457548.2891" z="0.0000" type="priority" />
	<node id="1587555228" x="683784.6947" y="7457111.8087" z="0.0000" type="priority" />
	<node id="1587555227" x="683998.6409" y="7457115.0289" z="0.0000" type="traffic_light" />
	<node id="1587555466" x="684417.6141" y="7456811.3908" z="0.0000" type="traffic_light" />
	<node id="1587555101" x="683826.8619" y="7457506.9840" z="0.0000" type="priority" />
	<node id="3738891778" x="683764.4941" y="7456864.3544" z="0.0000" type="priority" />
	<node id="2331227949" x="683992.5326" y="7456853.8568" z="0.0000" type="traffic_light" />
	<node id="3738891771" x="683763.1369" y="7456877.4732" z="0.0000" type="priority" />
	<node id="3738891774" x="683746.1103" y="7456870.3936" z="0.0000" type="traffic_light" />
	<node id="3738891775" x="683979.8106" y="7456865.0436" z="0.0000" type="priority" />
	<node id="1587555231" x="683979.1128" y="7457102.1546" z="0.0000" type="traffic_light" />
	<node id="1587555351" x="684766.2611" y="7456925.9386" z="0.0000" type="priority" />
	<node id="1587555336" x="684655.0082" y="7456933.9839" z="0.0000" type="traffic_light" />
	<node id="2331228011" x="683979.8004" y="7456841.5860" z="0.0000" type="traffic_light" />
	<node id="1587555333" x="684638.5848" y="7456935.1491" z="0.0000" type="priority" />
	<node id="142189863" x="685060.0212" y="7456683.0178" z="0.0000" type="priority" />
	<node id="3738891781" x="683977.8438" y="7456858.5000" z="0.0000" type="priority" />
	<node id="2331227955" x="683749.1361" y="7456857.8747" z="0.0000" type="traffic_light" />
	<node id="3738891787" x="683964.3716" y="7456849.4390" z="0.0000" type="priority" />
	<node id="25038607" x="683023.7890" y="7457169.0353" z="0.0000" type="priority" />
	<node id="25038604" x="683546.9201" y="7456884.5113" z="0.0000" type="priority" />
	<node id="4171587122" x="683122.3898" y="7457162.6958" z="0.0000" type="priority" />
	<node id="1587555447" x="684197.3524" y="7456826.3737" z="0.0000" type="traffic_light" />
	<node id="4171587121" x="683094.8045" y="7457164.2943" z="0.0000" type="priority" />
	<node id="2928075527" x="684737.7796" y="7457046.5237" z="0.0000" type="priority" />
	<node id="2296638096" x="683932.8200" y="7456851.1652" z="0.0000" type="priority" />
	<node id="1587555298" x="684000.2520" y="7456979.3797" z="0.0000" type="traffic_light" />
	<node id="1587555331" x="684623.2987" y="7456936.2340" z="0.0000" type="priority" />
	<node id="2296638095" x="684443.5833" y="7456809.3334" z="0.0000" type="priority" />
	<node id="2296638091" x="683926.2442" y="7456850.0938" z="0.0000" type="priority" />
	<node id="3358843444" x="683833.5022" y="7457512.4737" z="0.0000" type="priority" />
	<node id="2296638089" x="683553.9869" y="7456871.2010" z="0.0000" type="priority" />
	<node id="1587555313" x="684436.7649" y="7456949.8204" z="0.0000" type="traffic_light" />
	<node id="1587555398" x="683986.2829" y="7456854.2988" z="0.0000" type="priority" />
	<node id="2296638087" x="684735.4655" y="7456786.4229" z="0.0000" type="priority" />
	<node id="2332497553" x="683011.9632" y="7457169.6665" z="0.0000" type="priority" />
	<node id="3738891767" x="683763.2049" y="7456883.0432" z="0.0000" type="traffic_light" />
	<node id="2331227986" x="683530.7499" y="7456872.8027" z="0.0000" type="traffic_light" />
	<node id="3738891762" x="683120.8705" y="7456901.5573" z="0.0000" type="priority" />
	<node id="1587555440" x="684137.7571" y="7456830.7476" z="0.0000" type="priority" />
	<node id="3391965251" x="684203.7679" y="7457086.3793" z="0.0000" type="priority" />
	<node id="1587555306" x="684215.1229" y="7456965.2965" z="0.0000" type="priority" />
	<node id="3391965252" x="684200.4687" y="7457086.5969" z="0.0000" type="traffic_light" />
	<node id="1901583789" x="683972.8999" y="7456852.5244" z="0.0000" type="priority" />
	<node id="1587555304" x="683987.6297" y="7456965.1915" z="0.0000" type="traffic_light" />
	<node id="1587555422" x="683985.2205" y="7456841.2207" z="0.0000" type="priority" />
	<node id="1587555145" x="684012.9372" y="7457206.4919" z="0.0000" type="traffic_light" />
	<node id="1345381153" x="683768.3409" y="7456858.6035" z="0.0000" type="priority" />
	<node id="3738891739" x="682990.7493" y="7457051.0640" z="0.0000" type="priority" />
	<node id="1345381151" x="683772.6830" y="7456855.6155" z="0.0000" type="priority" />
	<node id="50930737" x="682978.9328" y="7457051.6176" z="0.0000" type="priority" />
	<node id="2331227868" x="683754.0097" y="7456857.2614" z="0.0000" type="priority" />
	<node id="2331227901" x="683536.9479" y="7456872.3283" z="0.0000" type="priority" />
	<node id="1587555275" x="684665.6631" y="7457052.5929" z="0.0000" type="traffic_light" />
	<node id="142182060" x="683115.1828" y="7456901.8370" z="0.0000" type="traffic_light" />
	<node id="1587555273" x="684648.6552" y="7457053.7654" z="0.0000" type="priority" />
	<node id="1587555271" x="684631.1042" y="7457054.9666" z="0.0000" type="traffic_light" />
	<node id="2331227907" x="683779.7788" y="7456868.1879" z="0.0000" type="traffic_light" />
	<node id="1587555415" x="684176.0172" y="7456840.9224" z="0.0000" type="traffic_light" />
	<node id="2368299995" x="684621.1135" y="7456797.5297" z="0.0000" type="priority" />
	<node id="2362524103" x="684422.6834" y="7456810.8634" z="0.0000" type="priority" />
	<node id="1587555259" x="684414.8796" y="7457070.8332" z="0.0000" type="traffic_light" />
	<node id="2296638102" x="685035.6144" y="7456683.7058" z="0.0000" type="priority" />
	<node id="1587555497" x="684725.5123" y="7456789.2255" z="0.0000" type="priority" />
	<node id="25038495" x="683797.2319" y="7457289.3381" z="0.0000" type="priority" />
	<node id="25038496" x="684017.9087" y="7457273.3708" z="0.0000" type="priority" />
	<node id="25038493" x="684022.5847" y="7457336.2108" z="0.0000" type="priority" />
	<node id="2296636206" x="683361.6318" y="7456884.9559" z="0.0000" type="priority" />
	<node id="2362524100" x="684202.6592" y="7456825.9764" z="0.0000" type="priority" />
	<node id="25038492" x="683801.6219" y="7457351.5060" z="0.0000" type="priority" />
	<node id="25038523" x="684192.9936" y="7456839.7065" z="0.0000" type="priority" />
	<node id="25038488" x="683805.7912" y="7457410.7195" z="0.0000" type="priority" />
	<node id="25038521" x="683763.1819" y="7456869.4097" z="0.0000" type="priority" />
	<node id="2331227910" x="683565.6696" y="7456883.2192" z="0.0000" type="traffic_light" />
	<node id="3738891740" x="682996.0477" y="7457050.8113" z="0.0000" type="traffic_light" />
	<node id="25038489" x="684027.0049" y="7457395.7424" z="0.0000" type="priority" />
	<node id="25038522" x="683975.5968" y="7456855.0387" z="0.0000" type="priority" />
	<node id="1587555142" x="684013.7730" y="7457217.8118" z="0.0000" type="priority" />
	<node id="1587555260" x="684446.4264" y="7457068.6742" z="0.0000" type="traffic_light" />
	<node id="1587555381" x="683959.5114" y="7456856.1659" z="0.0000" type="traffic_light" />
</nodes>
