<connections>
	<connection from="4217293_1587555241_1587555227" to="4217293_1587555227_1587555142" />
	<connection from="220553570_-106093_1587555231" to="220553570_1587555231_1587555241" />
	<connection from="4217297_1587555132_-106091" to="4217297_-106091_1587555228" />
	<connection from="388808400_2296638089_2331227955" to="388808400_2331227955_1345381151" />
	<connection from="388808400_1345381151_1901583832" to="119873085_1901583832_25038522" />
	<connection from="388808400_1345381151_1901583832" to="388808400_1901583832_2331228011" />
	<connection from="4217293_25038516_1587555254" to="4217293_1587555254_1587555241" />
	<connection from="370164915_2331227907_25038521" to="370164918_25038521_25038604" />
	<connection from="4217297_25038515_3738891767" to="4217297_3738891767_25038521" />
	<connection from="4217293_1587555254_1587555241" to="220553570_1587555241_1587555243" />
	<connection from="4217293_1587555254_1587555241" to="4217293_1587555241_1587555227" />
	<connection from="388808400_2331227955_1345381151" to="388808400_1345381151_1901583832" />
	<connection from="328458674_-106187_25038515" to="328458674_25038515_25038599" />
	<connection from="328458674_-106187_25038515" to="4217297_25038515_3738891767" />
	<connection from="4217293_25038522_1587555304" to="4217293_1587555304_25038516" />
	<connection from="4217297_3738891767_25038521" to="370164933_25038521_1345381151" />
	<connection from="4217297_3738891767_25038521" to="370164918_25038521_25038604" />
	<connection from="370164917_25038523_2331227949" to="370164917_2331227949_25038522" />
	<connection from="370164915_25038522_2331227907" to="370164915_2331227907_25038521" />
	<connection from="4217297_-106091_1587555228" to="220553570_1587555228_-106093" />
	<connection from="4217297_-106091_1587555228" to="4217297_1587555228_-106095" />
	<connection from="370164933_25038521_1345381151" to="388808400_1345381151_1901583832" />
	<connection from="220553570_1587555231_1587555241" to="220553570_1587555241_1587555243" />
	<connection from="220553570_1587555231_1587555241" to="4217293_1587555241_1587555227" />
	<connection from="220553570_1587555241_1587555243" to="220553570_1587555243_25038509" />
	<connection from="4217297_-106185_25038515" to="328458674_25038515_25038599" />
	<connection from="4217297_-106185_25038515" to="4217297_25038515_3738891767" />
	<connection from="328458674_1587555298_25038516" to="4217293_25038516_1587555254" />
	<connection from="328458674_1587555298_25038516" to="328458674_25038516_-106187" />
	<connection from="119873085_1901583832_25038522" to="4217293_25038522_1587555304" />
	<connection from="370164917_2331227949_25038522" to="4217293_25038522_1587555304" />
	<connection from="370164917_2331227949_25038522" to="370164915_25038522_2331227907" />
	<connection from="4217297_-106095_-106185" to="4217297_-106185_25038515" />
	<connection from="328458674_25038517_1587555298" to="328458674_1587555298_25038516" />
	<connection from="220553570_1587555228_-106093" to="220553570_-106093_1587555231" />
	<connection from="4217297_1587555228_-106095" to="4217297_-106095_-106185" />
	<connection from="388808400_1901583832_2331228011" to="388808400_2331228011_1587555440" />
	<connection from="220553570_-116141_1587555228" to="220553570_1587555228_-106093" />
	<connection from="220553570_-116141_1587555228" to="4217297_1587555228_-106095" />
	<connection from="4217293_1587555304_25038516" to="4217293_25038516_1587555254" />
	<connection from="4217293_1587555304_25038516" to="328458674_25038516_-106187" />
	<connection from="328458674_25038516_-106187" to="328458674_-106187_25038515" />
	<connection from="220553570_25038596_-116141" to="220553570_-116141_1587555228" />
</connections>
