<?xml version="1.0" ?>
<!-- Generated by MOSAIC scenario-convert 21.0 -->
<routes>
	<vType id="default" length="7.5" maxSpeed="50" minGap="2.0" carFollowModel="Krauss" accel="0.80" decel="4.5" sigma="0.5" tau="1"/>
	<route id="1" edges="370164917_25038523_2331227949 370164917_2331227949_25038522 370164915_25038522_2331227907 370164915_2331227907_25038521 370164918_25038521_25038604" />
	<route id="2" edges="4217297_1587555132_-106091 4217297_-106091_1587555228 4217297_1587555228_-106095 4217297_-106095_-106185 4217297_-106185_25038515 4217297_25038515_3738891767 4217297_3738891767_25038521 370164918_25038521_25038604" />
	<route id="3" edges="4217297_1587555132_-106091 4217297_-106091_1587555228 4217297_1587555228_-106095 4217297_-106095_-106185 4217297_-106185_25038515 4217297_25038515_3738891767 4217297_3738891767_25038521 370164933_25038521_1345381151 388808400_1345381151_1901583832 388808400_1901583832_2331228011 388808400_2331228011_1587555440" />
	<route id="4" edges="388808400_2331227955_1345381151 388808400_1345381151_1901583832 388808400_1901583832_2331228011 388808400_2331228011_1587555440" />
	<route id="5" edges="388808400_2331227955_1345381151 388808400_1345381151_1901583832 119873085_1901583832_25038522 4217293_25038522_1587555304 4217293_1587555304_25038516 328458674_25038516_-106187 328458674_-106187_25038515 328458674_25038515_25038599" />
	<route id="6" edges="388808400_2331227955_1345381151 388808400_1345381151_1901583832 119873085_1901583832_25038522 4217293_25038522_1587555304 4217293_1587555304_25038516 4217293_25038516_1587555254 4217293_1587555254_1587555241 220553570_1587555241_1587555243 220553570_1587555243_25038509" />
	<route id="7" edges="4217297_1587555132_-106091 4217297_-106091_1587555228 220553570_1587555228_-106093 220553570_-106093_1587555231 220553570_1587555231_1587555241 220553570_1587555241_1587555243 220553570_1587555243_25038509" />
	<route id="8" edges="220553570_25038596_-116141 220553570_-116141_1587555228 220553570_1587555228_-106093 220553570_-106093_1587555231 220553570_1587555231_1587555241 220553570_1587555241_1587555243 220553570_1587555243_25038509" />
	<route id="9" edges="4217297_1587555132_-106091 4217297_-106091_1587555228 220553570_1587555228_-106093 220553570_-106093_1587555231 220553570_1587555231_1587555241 4217293_1587555241_1587555227 4217293_1587555227_1587555142" />
	<route id="10" edges="328458674_25038517_1587555298 328458674_1587555298_25038516 4217293_25038516_1587555254 4217293_1587555254_1587555241 4217293_1587555241_1587555227 4217293_1587555227_1587555142" />
</routes>