<?xml version="1.0" encoding="UTF-8"?>

<!-- generated on qua 27 nov 2019 19:25:58 -03 by Eclipse SUMO netedit Version 1.2.0
<configuration xmlns:xsi="http://www.w3.org/2001/XMLSchema-instance" xsi:noNamespaceSchemaLocation="http://sumo.dlr.de/xsd/netconvertConfiguration.xsd">

    <input>
        <sumo-net-file value="/home/andre/VSIMRTI/vsimrti19.1/vsimrti/scenarios/SBRC/MAPA/ipanema.net.xml"/>
    </input>

    <output>
        <output-file value="/home/andre/VSIMRTI/vsimrti19.1/vsimrti/scenarios/SBRC/MAPA/ipanema.net.xml"/>
    </output>

    <processing>
        <geometry.max-grade.fix value="false"/>
        <offset.disable-normalization value="true"/>
        <lefthand value="false"/>
    </processing>

    <junctions>
        <no-turnarounds value="true"/>
        <junctions.corner-detail value="5"/>
        <junctions.limit-turn-speed value="5.5"/>
        <rectangular-lane-cut value="false"/>
    </junctions>

    <pedestrian>
        <walkingareas value="false"/>
    </pedestrian>

</configuration>
-->

<net version="1.1" junctionCornerDetail="5" limitTurnSpeed="5.50" xmlns:xsi="http://www.w3.org/2001/XMLSchema-instance" xsi:noNamespaceSchemaLocation="http://sumo.dlr.de/xsd/net_file.xsd">

    <location netOffset="-683688.68,-7456836.03" convBoundary="0.00,0.00,392.74,338.10" origBoundary="683688.68,7456836.03,684081.42,7457174.13" projParameter="!"/>

    <edge id=":-106091_0" function="internal">
        <lane id=":-106091_0_0" index="0" speed="8.33" length="0.30" shape="92.65,296.29 92.63,295.99"/>
        <lane id=":-106091_0_1" index="1" speed="8.33" length="0.30" shape="95.84,296.06 95.82,295.76"/>
    </edge>
    <edge id=":-106093_0" function="internal">
        <lane id=":-106093_0_0" index="0" speed="16.67" length="0.30" shape="110.90,267.03 111.20,267.01"/>
        <lane id=":-106093_0_1" index="1" speed="16.67" length="0.30" shape="111.06,270.22 111.36,270.21"/>
        <lane id=":-106093_0_2" index="2" speed="16.67" length="0.30" shape="111.22,273.42 111.52,273.40"/>
    </edge>
    <edge id=":-106095_0" function="internal">
        <lane id=":-106095_0_0" index="0" speed="8.33" length="0.10" shape="89.66,260.01 89.66,260.01"/>
        <lane id=":-106095_0_1" index="1" speed="8.33" length="0.10" shape="92.85,259.70 92.85,259.70"/>
    </edge>
    <edge id=":-106185_0" function="internal">
        <lane id=":-106185_0_0" index="0" speed="8.33" length="0.30" shape="81.42,174.98 81.39,174.68"/>
        <lane id=":-106185_0_1" index="1" speed="8.33" length="0.30" shape="84.60,174.67 84.57,174.38"/>
    </edge>
    <edge id=":-106187_0" function="internal">
        <lane id=":-106187_0_0" index="0" speed="16.67" length="0.10" shape="103.83,167.04 103.83,167.04"/>
        <lane id=":-106187_0_1" index="1" speed="16.67" length="0.10" shape="103.60,163.85 103.60,163.85"/>
        <lane id=":-106187_0_2" index="2" speed="16.67" length="0.10" shape="103.37,160.66 103.37,160.66"/>
    </edge>
    <edge id=":-109671_0" function="internal">
        <lane id=":-109671_0_0" index="0" speed="7.99" length="1.53" shape="281.61,9.41 282.28,9.51 282.73,9.64 283.15,9.86 283.70,10.24"/>
        <lane id=":-109671_0_1" index="1" speed="18.06" length="1.53" shape="281.16,12.58 281.38,12.61 281.53,12.65 281.67,12.73 281.85,12.85"/>
    </edge>
    <edge id=":-112788_0" function="internal">
        <lane id=":-112788_0_0" index="0" speed="8.33" length="1.00" shape="296.16,25.04 296.34,25.45 296.45,25.73 296.51,26.03 296.56,26.47"/>
        <lane id=":-112788_0_1" index="1" speed="8.33" length="1.00" shape="293.25,26.38 293.31,26.52 293.35,26.61 293.37,26.71 293.39,26.86"/>
    </edge>
    <edge id=":-116141_0" function="internal">
        <lane id=":-116141_0_0" index="0" speed="16.67" length="0.30" shape="76.94,269.05 77.24,269.03"/>
        <lane id=":-116141_0_1" index="1" speed="16.67" length="0.30" shape="77.16,272.24 77.46,272.22"/>
        <lane id=":-116141_0_2" index="2" speed="16.67" length="0.30" shape="77.37,275.43 77.67,275.41"/>
    </edge>
    <edge id=":1345381151_0" function="internal">
        <lane id=":1345381151_0_0" index="0" speed="19.44" length="3.00" shape="81.88,11.75 84.97,11.50"/>
        <lane id=":1345381151_0_1" index="1" speed="19.44" length="3.00" shape="82.19,14.93 85.18,14.69"/>
        <lane id=":1345381151_0_2" index="2" speed="19.44" length="3.00" shape="82.49,18.12 85.39,17.88"/>
    </edge>
    <edge id=":1345381151_3" function="internal">
        <lane id=":1345381151_3_0" index="0" speed="10.75" length="4.69" shape="80.04,16.48 81.41,15.57 82.43,15.07 83.55,14.83 85.18,14.69"/>
        <lane id=":1345381151_3_1" index="1" speed="8.99" length="4.69" shape="81.86,19.11 82.80,18.49 83.50,18.15 84.27,17.98 85.39,17.88"/>
    </edge>
    <edge id=":1345381153_0" function="internal">
        <lane id=":1345381153_0_0" index="0" speed="8.33" length="1.21" shape="75.67,19.90 75.98,19.46 76.21,19.17 76.50,18.93 76.94,18.62"/>
        <lane id=":1345381153_0_1" index="1" speed="8.33" length="1.21" shape="78.33,21.68 78.43,21.53 78.51,21.44 78.61,21.36 78.75,21.25"/>
    </edge>
    <edge id=":1587555227_0" function="internal">
        <lane id=":1587555227_0_0" index="0" speed="8.33" length="0.22" shape="315.91,278.40 315.92,278.51"/>
        <lane id=":1587555227_0_1" index="1" speed="8.33" length="0.22" shape="312.72,278.64 312.75,278.97"/>
    </edge>
    <edge id=":1587555228_0" function="internal">
        <lane id=":1587555228_0_0" index="0" speed="8.33" length="17.71" shape="91.51,280.11 89.90,262.52"/>
        <lane id=":1587555228_0_1" index="1" speed="8.33" length="17.71" shape="94.70,279.88 93.09,262.21"/>
    </edge>
    <edge id=":1587555228_2" function="internal">
        <lane id=":1587555228_2_0" index="0" speed="8.06" length="14.64" shape="94.70,279.88 94.68,274.61 95.50,270.81 97.14,268.47 99.61,267.59"/>
    </edge>
    <edge id=":1587555228_3" function="internal">
        <lane id=":1587555228_3_0" index="0" speed="7.28" length="11.76" shape="94.70,279.88 94.78,276.01 95.65,273.20 97.31,271.46 99.77,270.79"/>
    </edge>
    <edge id=":1587555228_4" function="internal">
        <lane id=":1587555228_4_0" index="0" speed="6.46" length="9.03" shape="94.70,279.88 94.87,277.41 95.80,275.60 97.49,274.46 99.93,273.98"/>
    </edge>
    <edge id=":1587555228_5" function="internal">
        <lane id=":1587555228_5_0" index="0" speed="6.44" length="9.03" shape="84.81,268.52 87.24,268.00 88.90,266.83 89.79,265.00 89.90,262.52"/>
    </edge>
    <edge id=":1587555228_6" function="internal">
        <lane id=":1587555228_6_0" index="0" speed="7.27" length="11.78" shape="84.81,268.52 88.64,267.90 91.30,266.64 92.78,264.74 93.09,262.21"/>
    </edge>
    <edge id=":1587555228_7" function="internal">
        <lane id=":1587555228_7_0" index="0" speed="16.67" length="14.77" shape="84.81,268.52 99.61,267.59"/>
        <lane id=":1587555228_7_1" index="1" speed="16.67" length="14.77" shape="85.03,271.71 99.77,270.79"/>
        <lane id=":1587555228_7_2" index="2" speed="16.67" length="14.77" shape="85.24,274.90 99.93,273.98"/>
    </edge>
    <edge id=":1587555231_0" function="internal">
        <lane id=":1587555231_0_0" index="0" speed="16.67" length="0.29" shape="289.85,258.14 290.09,258.13"/>
        <lane id=":1587555231_0_1" index="1" speed="16.67" length="0.29" shape="290.01,261.33 290.30,261.32"/>
        <lane id=":1587555231_0_2" index="2" speed="16.67" length="0.29" shape="290.17,264.53 290.51,264.51"/>
    </edge>
    <edge id=":1587555241_0" function="internal">
        <lane id=":1587555241_0_0" index="0" speed="6.50" length="9.03" shape="313.86,250.91 314.39,253.33 315.57,255.00 317.39,255.91 319.86,256.07"/>
    </edge>
    <edge id=":1587555241_1" function="internal">
        <lane id=":1587555241_1_0" index="0" speed="7.32" length="11.73" shape="313.86,250.91 314.49,254.72 315.75,257.39 317.62,258.90 320.10,259.26"/>
    </edge>
    <edge id=":1587555241_2" function="internal">
        <lane id=":1587555241_2_0" index="0" speed="8.10" length="14.57" shape="313.86,250.91 314.60,256.12 315.93,259.78 317.84,261.89 320.35,262.46"/>
    </edge>
    <edge id=":1587555241_3" function="internal">
        <lane id=":1587555241_3_0" index="0" speed="8.33" length="17.61" shape="313.86,250.91 315.17,268.47"/>
        <lane id=":1587555241_3_1" index="1" speed="8.33" length="17.61" shape="310.67,251.15 311.97,268.71"/>
    </edge>
    <edge id=":1587555241_5" function="internal">
        <lane id=":1587555241_5_0" index="0" speed="16.67" length="14.45" shape="305.48,257.12 319.86,256.07"/>
        <lane id=":1587555241_5_1" index="1" speed="16.67" length="14.45" shape="305.69,260.32 320.10,259.26"/>
        <lane id=":1587555241_5_2" index="2" speed="16.67" length="14.45" shape="305.90,263.51 320.35,262.46"/>
    </edge>
    <edge id=":1587555241_8" function="internal">
        <lane id=":1587555241_8_0" index="0" speed="7.37" length="11.78" shape="305.90,263.51 309.80,263.60 312.64,264.46 314.43,266.08 315.17,268.47"/>
    </edge>
    <edge id=":1587555241_9" function="internal">
        <lane id=":1587555241_9_0" index="0" speed="6.55" length="9.10" shape="305.90,263.51 308.40,263.70 310.25,264.62 311.44,266.30 311.97,268.71"/>
    </edge>
    <edge id=":1587555243_0" function="internal">
        <lane id=":1587555243_0_0" index="0" speed="16.67" length="0.30" shape="326.70,255.55 327.01,255.53"/>
        <lane id=":1587555243_0_1" index="1" speed="16.67" length="0.30" shape="326.95,258.74 327.24,258.72"/>
        <lane id=":1587555243_0_2" index="2" speed="16.67" length="0.30" shape="327.19,261.94 327.48,261.91"/>
    </edge>
    <edge id=":1587555254_0" function="internal">
        <lane id=":1587555254_0_0" index="0" speed="8.33" length="0.30" shape="313.65,248.03 313.67,248.32"/>
        <lane id=":1587555254_0_1" index="1" speed="8.33" length="0.30" shape="310.45,248.25 310.48,248.56"/>
    </edge>
    <edge id=":1587555298_0" function="internal">
        <lane id=":1587555298_0_0" index="0" speed="16.67" length="0.42" shape="316.06,151.11 315.78,151.14"/>
        <lane id=":1587555298_0_1" index="1" speed="16.67" length="0.42" shape="315.80,147.92 315.38,147.96"/>
        <lane id=":1587555298_0_2" index="2" speed="16.67" length="0.42" shape="315.54,144.73 314.99,144.79"/>
    </edge>
    <edge id=":1587555304_0" function="internal">
        <lane id=":1587555304_0_0" index="0" speed="8.33" length="0.29" shape="304.90,128.61 304.93,128.89"/>
        <lane id=":1587555304_0_1" index="1" speed="8.33" length="0.29" shape="301.71,128.86 301.74,129.17"/>
    </edge>
    <edge id=":1901583789_0" function="internal">
        <lane id=":1901583789_0_0" index="0" speed="18.06" length="0.25" shape="286.84,12.46 286.99,12.56"/>
        <lane id=":1901583789_0_1" index="1" speed="18.06" length="0.25" shape="284.99,15.07 285.25,15.25"/>
    </edge>
    <edge id=":1901583832_0" function="internal">
        <lane id=":1901583832_0_0" index="0" speed="19.44" length="3.00" shape="229.02,1.94 232.04,1.75"/>
        <lane id=":1901583832_0_1" index="1" speed="19.44" length="3.00" shape="229.24,5.13 232.23,4.94"/>
        <lane id=":1901583832_0_2" index="2" speed="19.44" length="3.00" shape="229.45,8.32 232.42,8.13"/>
    </edge>
    <edge id=":1901583832_3" function="internal">
        <lane id=":1901583832_3_0" index="0" speed="9.33" length="5.74" shape="229.45,8.32 234.93,6.62"/>
    </edge>
    <edge id=":1901583832_4" function="internal">
        <lane id=":1901583832_4_0" index="0" speed="7.85" length="3.98" shape="229.45,8.32 230.62,8.27 231.43,8.37 232.19,8.68 233.18,9.30"/>
    </edge>
    <edge id=":2296638091_0" function="internal">
        <lane id=":2296638091_0_0" index="0" speed="18.06" length="1.34" shape="239.05,9.30 239.21,9.41 239.34,9.47 239.47,9.50 239.66,9.54"/>
        <lane id=":2296638091_0_1" index="1" speed="8.72" length="1.34" shape="237.30,11.98 237.80,12.30 238.17,12.48 238.57,12.59 239.15,12.70"/>
    </edge>
    <edge id=":2296638096_0" function="internal">
        <lane id=":2296638096_0_0" index="0" speed="18.06" length="0.69" shape="244.23,10.28 244.33,10.30 244.40,10.30 244.47,10.30 244.57,10.30"/>
        <lane id=":2296638096_0_1" index="1" speed="18.06" length="0.69" shape="243.71,13.44 244.02,13.49 244.23,13.51 244.44,13.51 244.74,13.49"/>
    </edge>
    <edge id=":2331227907_0" function="internal">
        <lane id=":2331227907_0_0" index="0" speed="19.44" length="0.30" shape="91.80,40.12 91.53,40.14"/>
        <lane id=":2331227907_0_1" index="1" speed="19.44" length="0.30" shape="91.59,36.93 91.29,36.95"/>
        <lane id=":2331227907_0_2" index="2" speed="19.44" length="0.30" shape="91.37,33.74 91.05,33.76"/>
    </edge>
    <edge id=":2331227949_0" function="internal">
        <lane id=":2331227949_0_0" index="0" speed="19.44" length="0.28" shape="307.03,25.48 306.81,25.50"/>
        <lane id=":2331227949_0_1" index="1" speed="19.44" length="0.28" shape="306.83,22.29 306.55,22.31"/>
        <lane id=":2331227949_0_2" index="2" speed="19.44" length="0.28" shape="306.64,19.10 306.29,19.12"/>
    </edge>
    <edge id=":2331227955_0" function="internal">
        <lane id=":2331227955_0_0" index="0" speed="19.44" length="0.28" shape="59.66,13.88 59.87,13.86"/>
        <lane id=":2331227955_0_1" index="1" speed="19.44" length="0.28" shape="59.90,17.07 60.18,17.04"/>
        <lane id=":2331227955_0_2" index="2" speed="19.44" length="0.28" shape="60.14,20.26 60.49,20.23"/>
    </edge>
    <edge id=":2331228011_0" function="internal">
        <lane id=":2331228011_0_0" index="0" speed="19.44" length="0.29" shape="304.43,-2.60 304.68,-2.61"/>
        <lane id=":2331228011_0_1" index="1" speed="19.44" length="0.29" shape="304.63,0.60 304.92,0.58"/>
        <lane id=":2331228011_0_2" index="2" speed="19.44" length="0.29" shape="304.82,3.79 305.15,3.77"/>
    </edge>
    <edge id=":25038515_0" function="internal">
        <lane id=":25038515_0_0" index="0" speed="6.58" length="9.14" shape="81.35,174.32 80.76,171.90 79.54,170.24 77.67,169.33 75.17,169.18"/>
    </edge>
    <edge id=":25038515_1" function="internal">
        <lane id=":25038515_1_0" index="0" speed="7.39" length="11.80" shape="81.35,174.32 80.63,170.51 79.32,167.85 77.41,166.34 74.91,165.99"/>
    </edge>
    <edge id=":25038515_2" function="internal">
        <lane id=":25038515_2_0" index="0" speed="8.16" length="14.61" shape="81.35,174.32 80.50,169.11 79.10,165.46 77.15,163.35 74.66,162.80"/>
    </edge>
    <edge id=":25038515_3" function="internal">
        <lane id=":25038515_3_0" index="0" speed="8.33" length="17.55" shape="81.35,174.32 79.70,156.83"/>
        <lane id=":25038515_3_1" index="1" speed="8.33" length="17.55" shape="84.54,174.01 82.89,156.55"/>
    </edge>
    <edge id=":25038515_5" function="internal">
        <lane id=":25038515_5_0" index="0" speed="16.67" length="14.47" shape="89.56,168.06 75.17,169.18"/>
        <lane id=":25038515_5_1" index="1" speed="16.67" length="14.47" shape="89.33,164.87 74.91,165.99"/>
        <lane id=":25038515_5_2" index="2" speed="16.67" length="14.47" shape="89.11,161.68 74.66,162.80"/>
    </edge>
    <edge id=":25038515_8" function="internal">
        <lane id=":25038515_8_0" index="0" speed="7.40" length="11.84" shape="89.11,161.68 85.17,161.61 82.29,160.79 80.47,159.19 79.70,156.83"/>
    </edge>
    <edge id=":25038515_9" function="internal">
        <lane id=":25038515_9_0" index="0" speed="6.58" length="9.16" shape="89.11,161.68 86.57,161.51 84.69,160.60 83.46,158.95 82.89,156.55"/>
    </edge>
    <edge id=":25038516_0" function="internal">
        <lane id=":25038516_0_0" index="0" speed="6.74" length="9.37" shape="312.60,151.53 310.10,152.20 308.37,153.47 307.41,155.37 307.23,157.87"/>
    </edge>
    <edge id=":25038516_1" function="internal">
        <lane id=":25038516_1_0" index="0" speed="7.54" length="11.98" shape="312.60,151.53 308.71,152.36 305.98,153.73 304.43,155.64 304.04,158.10"/>
    </edge>
    <edge id=":25038516_2" function="internal">
        <lane id=":25038516_2_0" index="0" speed="16.67" length="14.25" shape="312.60,151.53 298.27,153.10"/>
        <lane id=":25038516_2_1" index="1" speed="16.67" length="14.25" shape="312.20,148.36 298.04,149.91"/>
        <lane id=":25038516_2_2" index="2" speed="16.67" length="14.25" shape="311.81,145.18 297.81,146.72"/>
    </edge>
    <edge id=":25038516_5" function="internal">
        <lane id=":25038516_5_0" index="0" speed="8.33" length="17.48" shape="305.92,140.42 307.23,157.87"/>
        <lane id=":25038516_5_1" index="1" speed="8.33" length="17.48" shape="302.74,140.69 304.04,158.10"/>
    </edge>
    <edge id=":25038516_7" function="internal">
        <lane id=":25038516_7_0" index="0" speed="8.04" length="14.52" shape="302.74,140.69 302.85,145.97 302.14,149.80 300.61,152.18 298.27,153.10"/>
    </edge>
    <edge id=":25038516_8" function="internal">
        <lane id=":25038516_8_0" index="0" speed="7.26" length="11.64" shape="302.74,140.69 302.73,144.58 301.94,147.41 300.38,149.19 298.04,149.91"/>
    </edge>
    <edge id=":25038516_9" function="internal">
        <lane id=":25038516_9_0" index="0" speed="6.43" length="8.90" shape="302.74,140.69 302.61,143.18 301.75,145.02 300.15,146.20 297.81,146.72"/>
    </edge>
    <edge id=":25038521_0" function="internal">
        <lane id=":25038521_0_0" index="0" speed="6.48" length="9.13" shape="70.45,47.38 69.95,44.95 68.78,43.27 66.93,42.36 64.40,42.21"/>
    </edge>
    <edge id=":25038521_1" function="internal">
        <lane id=":25038521_1_0" index="0" speed="7.30" length="11.86" shape="70.45,47.38 69.87,43.55 68.63,40.88 66.72,39.37 64.14,39.02"/>
    </edge>
    <edge id=":25038521_2" function="internal">
        <lane id=":25038521_2_0" index="0" speed="8.07" length="14.74" shape="70.45,47.38 69.79,42.15 68.48,38.48 66.52,36.37 63.89,35.83"/>
    </edge>
    <edge id=":25038521_3" function="internal">
        <lane id=":25038521_3_0" index="0" speed="8.33" length="18.75" shape="70.45,47.38 69.96,41.68 69.56,37.73 69.71,33.84 70.86,28.30"/>
        <lane id=":25038521_3_1" index="1" speed="8.33" length="18.75" shape="73.64,47.21 73.17,41.80 72.76,38.06 72.88,34.36 73.95,29.11"/>
    </edge>
    <edge id=":25038521_5" function="internal">
        <lane id=":25038521_5_0" index="0" speed="19.44" length="14.75" shape="79.08,41.06 64.40,42.21"/>
        <lane id=":25038521_5_1" index="1" speed="19.44" length="14.75" shape="78.84,37.87 64.14,39.02"/>
        <lane id=":25038521_5_2" index="2" speed="19.44" length="14.75" shape="78.61,34.68 63.89,35.83"/>
    </edge>
    <edge id=":25038522_0" function="internal">
        <lane id=":25038522_0_0" index="0" speed="19.44" length="18.58" shape="303.20,25.79 284.63,27.24"/>
        <lane id=":25038522_0_1" index="1" speed="19.44" length="18.58" shape="302.94,22.60 284.42,24.05"/>
        <lane id=":25038522_0_2" index="2" speed="19.44" length="18.58" shape="302.69,19.41 284.21,20.85"/>
    </edge>
    <edge id=":25038522_3" function="internal">
        <lane id=":25038522_3_0" index="0" speed="13.20" length="9.70" shape="287.33,12.79 289.93,14.54 291.55,15.99 292.76,17.80 294.12,20.62"/>
        <lane id=":25038522_3_1" index="1" speed="12.78" length="9.70" shape="285.60,15.48 287.74,16.92 289.09,18.13 290.09,19.63 291.22,21.95"/>
    </edge>
    <edge id=":3738891767_0" function="internal">
        <lane id=":3738891767_0_0" index="0" speed="8.33" length="0.13" shape="71.03,58.14 71.02,57.98"/>
        <lane id=":3738891767_0_1" index="1" speed="8.33" length="0.13" shape="74.22,57.86 74.21,57.81"/>
    </edge>
    <edge id=":3738891778_0" function="internal">
        <lane id=":3738891778_0_0" index="0" speed="8.33" length="1.08" shape="71.16,27.12 71.29,26.65 71.40,26.34 71.56,26.05 71.82,25.65"/>
        <lane id=":3738891778_0_1" index="1" speed="8.33" length="1.08" shape="74.26,27.92 74.30,27.76 74.34,27.66 74.39,27.56 74.48,27.43"/>
    </edge>
    <edge id=":3738891781_0" function="internal">
        <lane id=":3738891781_0_0" index="0" speed="8.33" length="0.16" shape="298.10,39.10 298.13,39.32"/>
        <lane id=":3738891781_0_1" index="1" speed="8.33" length="0.16" shape="294.93,39.49 294.94,39.56"/>
    </edge>
    <edge id=":3738891787_0" function="internal">
        <lane id=":3738891787_0_0" index="0" speed="18.06" length="3.64" shape="272.43,8.78 273.60,8.68 274.41,8.57 275.21,8.54 276.37,8.66"/>
        <lane id=":3738891787_0_1" index="1" speed="18.06" length="3.64" shape="272.61,11.98 273.59,11.88 274.27,11.78 274.94,11.74 275.92,11.83"/>
    </edge>

    <edge id="119873085_1901583832_25038522_-109671" from="-109671" to="1901583789" priority="-1">
        <lane id="119873085_1901583832_25038522_-109671_0" index="0" speed="18.06" length="3.84" shape="283.70,10.24 286.84,12.46"/>
        <lane id="119873085_1901583832_25038522_-109671_1" index="1" speed="18.06" length="3.84" shape="281.85,12.85 284.99,15.07"/>
    </edge>
    <edge id="119873085_1901583832_25038522_1901583789" from="1901583789" to="25038522" priority="-1">
        <lane id="119873085_1901583832_25038522_1901583789_0" index="0" speed="18.06" length="0.41" shape="286.99,12.56 287.33,12.79"/>
        <lane id="119873085_1901583832_25038522_1901583789_1" index="1" speed="18.06" length="0.41" shape="285.25,15.25 285.60,15.48"/>
    </edge>
    <edge id="119873085_1901583832_25038522_1901583832" from="1901583832" to="2296638091" priority="-1">
        <lane id="119873085_1901583832_25038522_1901583832_0" index="0" speed="18.06" length="4.92" shape="234.93,6.62 239.05,9.30"/>
        <lane id="119873085_1901583832_25038522_1901583832_1" index="1" speed="18.06" length="4.92" shape="233.18,9.30 237.30,11.98"/>
    </edge>
    <edge id="119873085_1901583832_25038522_2296638091" from="2296638091" to="2296638096" priority="-1">
        <lane id="119873085_1901583832_25038522_2296638091_0" index="0" speed="18.06" length="4.62" shape="239.66,9.54 244.23,10.28"/>
        <lane id="119873085_1901583832_25038522_2296638091_1" index="1" speed="18.06" length="4.62" shape="239.15,12.70 243.71,13.44"/>
    </edge>
    <edge id="119873085_1901583832_25038522_2296638096" from="2296638096" to="3738891787" priority="-1">
        <lane id="119873085_1901583832_25038522_2296638096_0" index="0" speed="18.06" length="27.90" shape="244.57,10.30 272.43,8.78"/>
        <lane id="119873085_1901583832_25038522_2296638096_1" index="1" speed="18.06" length="27.90" shape="244.74,13.49 272.61,11.98"/>
    </edge>
    <edge id="119873085_1901583832_25038522_3738891787" from="3738891787" to="-109671" priority="-1">
        <lane id="119873085_1901583832_25038522_3738891787_0" index="0" speed="18.06" length="5.29" shape="276.37,8.66 281.61,9.41"/>
        <lane id="119873085_1901583832_25038522_3738891787_1" index="1" speed="18.06" length="5.29" shape="275.92,11.83 281.16,12.58"/>
    </edge>
    <edge id="220553570_1587555228_1587555241_-106093" from="-106093" to="1587555231" priority="-1">
        <lane id="220553570_1587555228_1587555241_-106093_0" index="0" speed="16.67" length="178.87" shape="111.20,267.01 289.85,258.14"/>
        <lane id="220553570_1587555228_1587555241_-106093_1" index="1" speed="16.67" length="178.87" shape="111.36,270.21 290.01,261.33"/>
        <lane id="220553570_1587555228_1587555241_-106093_2" index="2" speed="16.67" length="178.87" shape="111.52,273.40 290.17,264.53"/>
    </edge>
    <edge id="220553570_1587555228_1587555241_1587555228" from="1587555228" to="-106093" priority="-1">
        <lane id="220553570_1587555228_1587555241_1587555228_0" index="0" speed="16.67" length="11.31" shape="99.61,267.59 110.90,267.03"/>
        <lane id="220553570_1587555228_1587555241_1587555228_1" index="1" speed="16.67" length="11.31" shape="99.77,270.79 111.06,270.22"/>
        <lane id="220553570_1587555228_1587555241_1587555228_2" index="2" speed="16.67" length="11.31" shape="99.93,273.98 111.22,273.42"/>
    </edge>
    <edge id="220553570_1587555228_1587555241_1587555231" from="1587555231" to="1587555241" priority="-1">
        <lane id="220553570_1587555228_1587555241_1587555231_0" index="0" speed="16.67" length="15.42" shape="290.09,258.13 305.48,257.12"/>
        <lane id="220553570_1587555228_1587555241_1587555231_1" index="1" speed="16.67" length="15.42" shape="290.30,261.32 305.69,260.32"/>
        <lane id="220553570_1587555228_1587555241_1587555231_2" index="2" speed="16.67" length="15.42" shape="290.51,264.51 305.90,263.51"/>
    </edge>
    <edge id="220553570_1587555241_25038509_1587555241" from="1587555241" to="1587555243" priority="-1">
        <lane id="220553570_1587555241_25038509_1587555241_0" index="0" speed="16.67" length="6.86" shape="319.86,256.07 326.70,255.55"/>
        <lane id="220553570_1587555241_25038509_1587555241_1" index="1" speed="16.67" length="6.86" shape="320.10,259.26 326.95,258.74"/>
        <lane id="220553570_1587555241_25038509_1587555241_2" index="2" speed="16.67" length="6.86" shape="320.35,262.46 327.19,261.94"/>
    </edge>
    <edge id="220553570_1587555241_25038509_1587555243" from="1587555243" to="25038509" priority="-1">
        <lane id="220553570_1587555241_25038509_1587555243_0" index="0" speed="16.67" length="65.32" shape="327.01,255.53 392.16,250.82"/>
        <lane id="220553570_1587555241_25038509_1587555243_1" index="1" speed="16.67" length="65.32" shape="327.24,258.72 392.39,254.01"/>
        <lane id="220553570_1587555241_25038509_1587555243_2" index="2" speed="16.67" length="65.32" shape="327.48,261.91 392.62,257.20"/>
    </edge>
    <edge id="220553570_25038596_1587555228_-116141" from="-116141" to="1587555228" priority="-1">
        <lane id="220553570_25038596_1587555228_-116141_0" index="0" speed="16.67" length="7.59" shape="77.24,269.03 84.81,268.52"/>
        <lane id="220553570_25038596_1587555228_-116141_1" index="1" speed="16.67" length="7.59" shape="77.46,272.22 85.03,271.71"/>
        <lane id="220553570_25038596_1587555228_-116141_2" index="2" speed="16.67" length="7.59" shape="77.67,275.41 85.24,274.90"/>
    </edge>
    <edge id="220553570_25038596_1587555228_25038596" from="25038596" to="-116141" priority="-1">
        <lane id="220553570_25038596_1587555228_25038596_0" index="0" speed="16.67" length="56.12" shape="20.95,272.84 76.94,269.05"/>
        <lane id="220553570_25038596_1587555228_25038596_1" index="1" speed="16.67" length="56.12" shape="21.17,276.03 77.16,272.24"/>
        <lane id="220553570_25038596_1587555228_25038596_2" index="2" speed="16.67" length="56.12" shape="21.38,279.22 77.37,275.43"/>
    </edge>
    <edge id="328458674_25038515_25038599_25038515" from="25038515" to="25038599" priority="-1">
        <lane id="328458674_25038515_25038599_25038515_0" index="0" speed="16.67" length="62.44" shape="75.17,169.18 12.93,174.15"/>
        <lane id="328458674_25038515_25038599_25038515_1" index="1" speed="16.67" length="62.44" shape="74.91,165.99 12.67,170.96"/>
        <lane id="328458674_25038515_25038599_25038515_2" index="2" speed="16.67" length="62.44" shape="74.66,162.80 12.42,167.77"/>
    </edge>
    <edge id="328458674_25038516_25038515_-106187" from="-106187" to="25038515" priority="-1">
        <lane id="328458674_25038516_25038515_-106187_0" index="0" speed="16.67" length="14.31" shape="103.83,167.04 89.56,168.06"/>
        <lane id="328458674_25038516_25038515_-106187_1" index="1" speed="16.67" length="14.31" shape="103.60,163.85 89.33,164.87"/>
        <lane id="328458674_25038516_25038515_-106187_2" index="2" speed="16.67" length="14.31" shape="103.37,160.66 89.11,161.68"/>
    </edge>
    <edge id="328458674_25038516_25038515_25038516" from="25038516" to="-106187" priority="-1">
        <lane id="328458674_25038516_25038515_25038516_0" index="0" speed="16.67" length="194.94" shape="298.27,153.10 103.83,167.04"/>
        <lane id="328458674_25038516_25038515_25038516_1" index="1" speed="16.67" length="194.94" shape="298.04,149.91 103.60,163.85"/>
        <lane id="328458674_25038516_25038515_25038516_2" index="2" speed="16.67" length="194.94" shape="297.81,146.72 103.37,160.66"/>
    </edge>
    <edge id="328458674_25038517_25038516_1587555298" from="1587555298" to="25038516" priority="-1">
        <lane id="328458674_25038517_25038516_1587555298_0" index="0" speed="16.67" length="3.20" shape="315.78,151.14 312.60,151.53"/>
        <lane id="328458674_25038517_25038516_1587555298_1" index="1" speed="16.67" length="3.20" shape="315.38,147.96 312.20,148.36"/>
        <lane id="328458674_25038517_25038516_1587555298_2" index="2" speed="16.67" length="3.20" shape="314.99,144.79 311.81,145.18"/>
    </edge>
    <edge id="328458674_25038517_25038516_25038517" from="25038517" to="1587555298" priority="-1">
        <lane id="328458674_25038517_25038516_25038517_0" index="0" speed="16.67" length="72.06" shape="387.88,145.25 316.06,151.11"/>
        <lane id="328458674_25038517_25038516_25038517_1" index="1" speed="16.67" length="72.06" shape="387.62,142.06 315.80,147.92"/>
        <lane id="328458674_25038517_25038516_25038517_2" index="2" speed="16.67" length="72.06" shape="387.36,138.87 315.54,144.73"/>
    </edge>
    <edge id="370164915_25038522_25038521_2331227907" from="2331227907" to="25038521" priority="-1">
        <lane id="370164915_25038522_25038521_2331227907_0" index="0" speed="19.44" length="12.48" shape="91.53,40.14 79.08,41.06"/>
        <lane id="370164915_25038522_25038521_2331227907_1" index="1" speed="19.44" length="12.48" shape="91.29,36.95 78.84,37.87"/>
        <lane id="370164915_25038522_25038521_2331227907_2" index="2" speed="19.44" length="12.48" shape="91.05,33.76 78.61,34.68"/>
    </edge>
    <edge id="370164915_25038522_25038521_25038522" from="25038522" to="2331227907" priority="-1">
        <lane id="370164915_25038522_25038521_25038522_0" index="0" speed="19.44" length="193.26" shape="284.63,27.24 91.80,40.12"/>