<?xml version="1.0" encoding="UTF-8"?>

<!-- generated on qui 09 set 2021 12:14:39 by Eclipse SUMO netedit Version 1.7.0
<configuration xmlns:xsi="http://www.w3.org/2001/XMLSchema-instance" xsi:noNamespaceSchemaLocation="http://sumo.dlr.de/xsd/netconvertConfiguration.xsd">

    <input>
        <sumo-net-file value="/home/andre/VSIMRTI/MOSAIC21/scenarios/BlockchainVehicleUnit/sumo/ipanema.net.xml"/>
    </input>

    <output>
        <output-file value="/home/andre/VSIMRTI/MOSAIC21/scenarios/BlockchainVehicleUnit/sumo/ipanema.net.xml"/>
    </output>

    <processing>
        <geometry.min-radius.fix.railways value="false"/>
        <geometry.max-grade.fix value="false"/>
        <offset.disable-normalization value="true"/>
        <lefthand value="false"/>
    </processing>

    <junctions>
        <no-turnarounds value="true"/>
        <junctions.corner-detail value="5"/>
        <junctions.limit-turn-speed value="5.5"/>
        <rectangular-lane-cut value="false"/>
    </junctions>

    <pedestrian>
        <walkingareas value="false"/>
    </pedestrian>

    <report>
        <aggregate-warnings value="5"/>
    </report>

</configuration>
-->

<net version="1.6" junctionCornerDetail="5" limitTurnSpeed="5.50" xmlns:xsi="http://www.w3.org/2001/XMLSchema-instance" xsi:noNamespaceSchemaLocation="http://sumo.dlr.de/xsd/net_file.xsd">

    <location netOffset="-683688.68,-7456836.03" convBoundary="0.00,0.00,392.74,338.10" origBoundary="683688.68,7456836.03,684081.42,7457174.13" projParameter="!"/>

    <edge id=":-106091_0" function="internal">
        <lane id=":-106091_0_0" index="0" speed="8.33" length="0.30" shape="92.65,296.30 92.63,296.00"/>
        <lane id=":-106091_0_1" index="1" speed="8.33" length="0.30" shape="95.84,296.07 95.82,295.77"/>
    </edge>
    <edge id=":-106093_0" function="internal">
        <lane id=":-106093_0_0" index="0" speed="16.67" length="0.30" shape="110.90,267.03 111.20,267.01"/>
        <lane id=":-106093_0_1" index="1" speed="16.67" length="0.30" shape="111.06,270.22 111.36,270.21"/>
        <lane id=":-106093_0_2" index="2" speed="16.67" length="0.30" shape="111.22,273.42 111.52,273.40"/>
    </edge>
    <edge id=":-106095_0" function="internal">
        <lane id=":-106095_0_0" index="0" speed="8.33" length="0.10" shape="89.66,260.01 89.66,260.01"/>
        <lane id=":-106095_0_1" index="1" speed="8.33" length="0.10" shape="92.85,259.70 92.85,259.70"/>
    </edge>
    <edge id=":-106185_0" function="internal">
        <lane id=":-106185_0_0" index="0" speed="8.33" length="0.30" shape="81.42,174.98 81.39,174.68"/>
        <lane id=":-106185_0_1" index="1" speed="8.33" length="0.30" shape="84.60,174.67 84.57,174.38"/>
    </edge>
    <edge id=":-106187_0" function="internal">
        <lane id=":-106187_0_0" index="0" speed="16.67" length="0.10" shape="103.83,167.05 103.83,167.05"/>
        <lane id=":-106187_0_1" index="1" speed="16.67" length="0.10" shape="103.60,163.86 103.60,163.86"/>
        <lane id=":-106187_0_2" index="2" speed="16.67" length="0.10" shape="103.37,160.67 103.37,160.67"/>
    </edge>
    <edge id=":-116141_0" function="internal">
        <lane id=":-116141_0_0" index="0" speed="16.67" length="0.30" shape="76.94,269.05 77.24,269.03"/>
        <lane id=":-116141_0_1" index="1" speed="16.67" length="0.30" shape="77.16,272.24 77.46,272.22"/>
        <lane id=":-116141_0_2" index="2" speed="16.67" length="0.30" shape="77.37,275.43 77.67,275.41"/>
    </edge>
    <edge id=":1345381151_0" function="internal">
        <lane id=":1345381151_0_0" index="0" speed="19.44" length="13.92" shape="71.01,12.79 84.97,11.51"/>
        <lane id=":1345381151_0_1" index="1" speed="19.44" length="13.92" shape="71.32,15.98 85.18,14.70"/>
        <lane id=":1345381151_0_2" index="2" speed="19.44" length="13.92" shape="71.62,19.17 85.39,17.89"/>
    </edge>
    <edge id=":1345381151_3" function="internal">
        <lane id=":1345381151_3_0" index="0" speed="12.08" length="15.04" shape="73.42,23.26 77.03,18.22 80.16,14.57 82.80,12.34 84.97,11.51"/>
        <lane id=":1345381151_3_1" index="1" speed="11.45" length="15.04" shape="73.42,23.26 76.20,19.67 79.09,17.05 82.08,15.39 85.18,14.70"/>
        <lane id=":1345381151_3_2" index="2" speed="10.79" length="15.04" shape="75.40,26.06 77.99,22.61 80.52,20.09 82.99,18.52 85.39,17.89"/>
    </edge>
    <edge id=":1587555227_0" function="internal">
        <lane id=":1587555227_0_0" index="0" speed="8.33" length="0.22" shape="315.91,278.40 315.92,278.51"/>
        <lane id=":1587555227_0_1" index="1" speed="8.33" length="0.22" shape="312.72,278.64 312.76,278.97"/>
    </edge>
    <edge id=":1587555228_0" function="internal">
        <lane id=":1587555228_0_0" index="0" speed="8.33" length="17.71" shape="91.50,280.11 89.90,262.52"/>
        <lane id=":1587555228_0_1" index="1" speed="8.33" length="17.71" shape="94.70,279.88 93.09,262.21"/>
    </edge>
    <edge id=":1587555228_2" function="internal">
        <lane id=":1587555228_2_0" index="0" speed="8.06" length="14.64" shape="94.70,279.88 94.68,274.61 95.50,270.81 97.14,268.47 99.61,267.59"/>
    </edge>
    <edge id=":1587555228_3" function="internal">
        <lane id=":1587555228_3_0" index="0" speed="7.28" length="11.76" shape="94.70,279.88 94.78,276.01 95.65,273.20 97.31,271.46 99.77,270.79"/>
    </edge>
    <edge id=":1587555228_4" function="internal">
        <lane id=":1587555228_4_0" index="0" speed="6.46" length="9.03" shape="94.70,279.88 94.87,277.41 95.80,275.60 97.49,274.46 99.93,273.98"/>
    </edge>
    <edge id=":1587555228_5" function="internal">
        <lane id=":1587555228_5_0" index="0" speed="6.44" length="9.03" shape="84.81,268.52 87.24,268.00 88.90,266.83 89.79,265.00 89.90,262.52"/>
    </edge>
    <edge id=":1587555228_6" function="internal">
        <lane id=":1587555228_6_0" index="0" speed="7.27" length="11.78" shape="84.81,268.52 88.64,267.90 91.30,266.64 92.78,264.74 93.09,262.21"/>
    </edge>
    <edge id=":1587555228_7" function="internal">
        <lane id=":1587555228_7_0" index="0" speed="16.67" length="14.77" shape="84.81,268.52 99.61,267.59"/>
        <lane id=":1587555228_7_1" index="1" speed="16.67" length="14.77" shape="85.03,271.71 99.77,270.79"/>
        <lane id=":1587555228_7_2" index="2" speed="16.67" length="14.77" shape="85.24,274.90 99.93,273.98"/>
    </edge>
    <edge id=":1587555231_0" function="internal">
        <lane id=":1587555231_0_0" index="0" speed="16.67" length="0.29" shape="289.85,258.14 290.09,258.13"/>
        <lane id=":1587555231_0_1" index="1" speed="16.67" length="0.29" shape="290.01,261.33 290.30,261.32"/>
        <lane id=":1587555231_0_2" index="2" speed="16.67" length="0.29" shape="290.17,264.53 290.51,264.51"/>
    </edge>
    <edge id=":1587555241_0" function="internal">
        <lane id=":1587555241_0_0" index="0" speed="6.50" length="9.03" shape="313.86,250.91 314.39,253.33 315.57,255.00 317.40,255.91 319.87,256.07"/>
    </edge>
    <edge id=":1587555241_1" function="internal">
        <lane id=":1587555241_1_0" index="0" speed="7.32" length="11.73" shape="313.86,250.91 314.50,254.73 315.75,257.39 317.62,258.90 320.11,259.26"/>
    </edge>
    <edge id=":1587555241_2" function="internal">
        <lane id=":1587555241_2_0" index="0" speed="8.10" length="14.57" shape="313.86,250.91 314.60,256.12 315.93,259.78 317.85,261.89 320.35,262.46"/>
    </edge>
    <edge id=":1587555241_3" function="internal">
        <lane id=":1587555241_3_0" index="0" speed="8.33" length="17.61" shape="313.86,250.91 315.17,268.47"/>
        <lane id=":1587555241_3_1" index="1" speed="8.33" length="17.61" shape="310.67,251.15 311.98,268.71"/>
    </edge>
    <edge id=":1587555241_5" function="internal">
        <lane id=":1587555241_5_0" index="0" speed="16.67" length="14.45" shape="305.49,257.12 319.87,256.07"/>
        <lane id=":1587555241_5_1" index="1" speed="16.67" length="14.45" shape="305.69,260.32 320.11,259.26"/>
        <lane id=":1587555241_5_2" index="2" speed="16.67" length="14.45" shape="305.90,263.51 320.35,262.46"/>
    </edge>
    <edge id=":1587555241_8" function="internal">
        <lane id=":1587555241_8_0" index="0" speed="7.37" length="11.79" shape="305.90,263.51 309.80,263.60 312.65,264.46 314.44,266.09 315.17,268.47"/>
    </edge>
    <edge id=":1587555241_9" function="internal">
        <lane id=":1587555241_9_0" index="0" speed="6.55" length="9.11" shape="305.90,263.51 308.41,263.70 310.26,264.63 311.45,266.30 311.98,268.71"/>
    </edge>
    <edge id=":1587555243_0" function="internal">
        <lane id=":1587555243_0_0" index="0" speed="16.67" length="0.30" shape="326.70,255.55 327.01,255.53"/>
        <lane id=":1587555243_0_1" index="1" speed="16.67" length="0.30" shape="326.95,258.74 327.24,258.72"/>
        <lane id=":1587555243_0_2" index="2" speed="16.67" length="0.30" shape="327.19,261.94 327.47,261.91"/>
    </edge>
    <edge id=":1587555254_0" function="internal">
        <lane id=":1587555254_0_0" index="0" speed="8.33" length="0.30" shape="313.65,248.02 313.67,248.32"/>
        <lane id=":1587555254_0_1" index="1" speed="8.33" length="0.30" shape="310.45,248.25 310.48,248.56"/>
    </edge>
    <edge id=":1587555298_0" function="internal">
        <lane id=":1587555298_0_0" index="0" speed="16.67" length="0.42" shape="316.06,151.11 315.78,151.14"/>
        <lane id=":1587555298_0_1" index="1" speed="16.67" length="0.42" shape="315.80,147.92 315.38,147.96"/>
        <lane id=":1587555298_0_2" index="2" speed="16.67" length="0.42" shape="315.54,144.73 314.99,144.79"/>
    </edge>
    <edge id=":1587555304_0" function="internal">
        <lane id=":1587555304_0_0" index="0" speed="8.33" length="0.29" shape="304.90,128.62 304.93,128.90"/>
        <lane id=":1587555304_0_1" index="1" speed="8.33" length="0.29" shape="301.71,128.87 301.74,129.18"/>
    </edge>
    <edge id=":1901583832_0" function="internal">
        <lane id=":1901583832_0_0" index="0" speed="19.44" length="48.76" shape="229.02,1.94 277.72,-0.99"/>
        <lane id=":1901583832_0_1" index="1" speed="19.44" length="48.76" shape="229.24,5.13 277.91,2.21"/>
        <lane id=":1901583832_0_2" index="2" speed="19.44" length="48.76" shape="229.45,8.32 278.10,5.40"/>
    </edge>
    <edge id=":1901583832_3" function="internal">
        <lane id=":1901583832_3_0" index="0" speed="18.75" length="47.89" shape="229.45,8.32 241.84,7.78 255.27,7.65 267.74,7.98 277.29,8.79"/>
    </edge>
    <edge id=":1901583832_4" function="internal">
        <lane id=":1901583832_4_0" index="0" speed="18.75" length="46.19" shape="229.45,8.32 241.55,8.53 254.32,9.90 266.17,11.36 275.46,11.82"/>
    </edge>
    <edge id=":2331227907_0" function="internal">
        <lane id=":2331227907_0_0" index="0" speed="19.44" length="0.30" shape="91.80,40.13 91.52,40.15"/>
        <lane id=":2331227907_0_1" index="1" speed="19.44" length="0.30" shape="91.58,36.94 91.29,36.96"/>
        <lane id=":2331227907_0_2" index="2" speed="19.44" length="0.30" shape="91.37,33.75 91.05,33.77"/>
    </edge>
    <edge id=":2331227949_0" function="internal">
        <lane id=":2331227949_0_0" index="0" speed="19.44" length="0.28" shape="307.03,25.48 306.81,25.50"/>
        <lane id=":2331227949_0_1" index="1" speed="19.44" length="0.28" shape="306.83,22.29 306.55,22.31"/>
        <lane id=":2331227949_0_2" index="2" speed="19.44" length="0.28" shape="306.64,19.10 306.29,19.12"/>
    </edge>
    <edge id=":2331227955_0" function="internal">
        <lane id=":2331227955_0_0" index="0" speed="19.44" length="0.28" shape="59.67,13.88 59.89,13.86"/>
        <lane id=":2331227955_0_1" index="1" speed="19.44" length="0.28" shape="59.91,17.07 60.19,17.04"/>
        <lane id=":2331227955_0_2" index="2" speed="19.44" length="0.28" shape="60.15,20.26 60.50,20.23"/>
    </edge>
    <edge id=":2331228011_0" function="internal">
        <lane id=":2331228011_0_0" index="0" speed="19.44" length="0.29" shape="304.43,-2.59 304.68,-2.60"/>
        <lane id=":2331228011_0_1" index="1" speed="19.44" length="0.29" shape="304.63,0.61 304.92,0.59"/>
        <lane id=":2331228011_0_2" index="2" speed="19.44" length="0.29" shape="304.82,3.80 305.15,3.78"/>
    </edge>
    <edge id=":25038515_0" function="internal">
        <lane id=":25038515_0_0" index="0" speed="6.58" length="9.14" shape="81.35,174.33 80.76,171.91 79.54,170.25 77.67,169.34 75.17,169.19"/>
    </edge>
    <edge id=":25038515_1" function="internal">
        <lane id=":25038515_1_0" index="0" speed="7.39" length="11.80" shape="81.35,174.33 80.63,170.51 79.32,167.86 77.41,166.35 74.91,166.00"/>
    </edge>
    <edge id=":25038515_2" function="internal">
        <lane id=":25038515_2_0" index="0" speed="8.16" length="14.61" shape="81.35,174.33 80.50,169.12 79.10,165.47 77.15,163.36 74.66,162.81"/>
    </edge>
    <edge id=":25038515_3" function="internal">
        <lane id=":25038515_3_0" index="0" speed="8.33" length="17.55" shape="81.35,174.33 79.70,156.84"/>
        <lane id=":25038515_3_1" index="1" speed="8.33" length="17.55" shape="84.54,174.02 82.89,156.56"/>
    </edge>
    <edge id=":25038515_5" function="internal">
        <lane id=":25038515_5_0" index="0" speed="16.67" length="14.47" shape="89.56,168.07 75.17,169.19"/>
        <lane id=":25038515_5_1" index="1" speed="16.67" length="14.47" shape="89.33,164.88 74.91,166.00"/>
        <lane id=":25038515_5_2" index="2" speed="16.67" length="14.47" shape="89.11,161.69 74.66,162.81"/>
    </edge>
    <edge id=":25038515_8" function="internal">
        <lane id=":25038515_8_0" index="0" speed="7.40" length="11.84" shape="89.11,161.69 85.17,161.62 82.29,160.80 80.47,159.20 79.70,156.84"/>
    </edge>
    <edge id=":25038515_9" function="internal">
        <lane id=":25038515_9_0" index="0" speed="6.58" length="9.16" shape="89.11,161.69 86.57,161.52 84.69,160.61 83.46,158.96 82.89,156.56"/>
    </edge>
    <edge id=":25038516_0" function="internal">
        <lane id=":25038516_0_0" index="0" speed="6.74" length="9.37" shape="312.60,151.53 310.10,152.20 308.37,153.48 307.41,155.37 307.23,157.88"/>
    </edge>
    <edge id=":25038516_1" function="internal">
        <lane id=":25038516_1_0" index="0" speed="7.54" length="11.98" shape="312.60,151.53 308.71,152.36 305.98,153.74 304.43,155.65 304.04,158.11"/>
    </edge>
    <edge id=":25038516_2" function="internal">
        <lane id=":25038516_2_0" index="0" speed="16.67" length="14.24" shape="312.60,151.53 298.27,153.11"/>
        <lane id=":25038516_2_1" index="1" speed="16.67" length="14.24" shape="312.20,148.36 298.05,149.92"/>
        <lane id=":25038516_2_2" index="2" speed="16.67" length="14.24" shape="311.81,145.18 297.82,146.73"/>
    </edge>
    <edge id=":25038516_5" function="internal">
        <lane id=":25038516_5_0" index="0" speed="8.33" length="17.48" shape="305.92,140.43 307.23,157.88"/>
        <lane id=":25038516_5_1" index="1" speed="8.33" length="17.48" shape="302.74,140.70 304.04,158.11"/>
    </edge>
    <edge id=":25038516_7" function="internal">
        <lane id=":25038516_7_0" index="0" speed="8.04" length="14.52" shape="302.74,140.70 302.85,145.98 302.14,149.81 300.62,152.19 298.27,153.11"/>
    </edge>
    <edge id=":25038516_8" function="internal">
        <lane id=":25038516_8_0" index="0" speed="7.26" length="11.64" shape="302.74,140.70 302.73,144.59 301.95,147.42 300.38,149.20 298.05,149.92"/>
    </edge>
    <edge id=":25038516_9" function="internal">
        <lane id=":25038516_9_0" index="0" speed="6.43" length="8.90" shape="302.74,140.70 302.61,143.19 301.75,145.03 300.15,146.21 297.82,146.73"/>
    </edge>
    <edge id=":25038521_0" function="internal">
        <lane id=":25038521_0_0" index="0" speed="6.48" length="9.13" shape="70.45,47.38 69.95,44.95 68.78,43.27 66.93,42.36 64.40,42.21"/>
    </edge>
    <edge id=":25038521_1" function="internal">
        <lane id=":25038521_1_0" index="0" speed="7.30" length="11.86" shape="70.45,47.38 69.87,43.55 68.63,40.88 66.72,39.37 64.14,39.02"/>
    </edge>
    <edge id=":25038521_2" function="internal">
        <lane id=":25038521_2_0" index="0" speed="8.07" length="14.74" shape="70.45,47.38 69.79,42.15 68.48,38.48 66.52,36.37 63.89,35.83"/>
    </edge>
    <edge id=":25038521_3" function="internal">
        <lane id=":25038521_3_0" index="0" speed="8.33" length="18.75" shape="70.45,47.38 69.96,41.68 69.56,37.74 69.71,33.84 70.86,28.30"/>
        <lane id=":25038521_3_1" index="1" speed="8.33" length="18.75" shape="73.64,47.21 73.17,41.80 72.76,38.06 72.88,34.36 73.95,29.11"/>
    </edge>
    <edge id=":25038521_5" function="internal">
        <lane id=":25038521_5_0" index="0" speed="19.44" length="14.74" shape="79.08,41.07 64.40,42.21"/>
        <lane id=":25038521_5_1" index="1" speed="19.44" length="14.74" shape="78.84,37.87 64.14,39.02"/>
        <lane id=":25038521_5_2" index="2" speed="19.44" length="14.74" shape="78.61,34.68 63.89,35.83"/>
    </edge>
    <edge id=":25038522_0" function="internal">
        <lane id=":25038522_0_0" index="0" speed="6.80" length="10.26" shape="303.23,25.79 300.35,26.41 298.40,27.73 297.38,29.74 297.29,32.45"/>
    </edge>
    <edge id=":25038522_1" function="internal">
        <lane id=":25038522_1_0" index="0" speed="7.78" length="13.78" shape="303.23,25.79 298.96,26.59 296.04,28.20 294.47,30.61 294.24,33.82"/>
    </edge>
    <edge id=":25038522_2" function="internal">
        <lane id=":25038522_2_0" index="0" speed="19.44" length="18.60" shape="303.23,25.79 284.64,27.24"/>
        <lane id=":25038522_2_1" index="1" speed="19.44" length="18.60" shape="302.97,22.60 284.43,24.05"/>
        <lane id=":25038522_2_2" index="2" speed="19.44" length="18.60" shape="302.71,19.41 284.22,20.85"/>
    </edge>
    <edge id=":25038522_5" function="internal">
        <lane id=":25038522_5_0" index="0" speed="13.20" length="21.80" shape="287.34,12.79 291.04,16.00 293.93,20.35 296.01,25.83 297.29,32.45"/>
        <lane id=":25038522_5_1" index="1" speed="13.20" length="21.80" shape="285.60,15.48 288.75,18.30 291.23,22.30 293.06,27.48 294.24,33.82"/>
    </edge>
    <edge id=":3738891767_0" function="internal">
        <lane id=":3738891767_0_0" index="0" speed="8.33" length="0.11" shape="71.03,58.14 71.02,57.98"/>
        <lane id=":3738891767_0_1" index="1" speed="8.33" length="0.11" shape="74.22,57.86 74.21,57.81"/>
    </edge>

    <edge id="119873085_1901583832_25038522" from="1901583832" to="25038522" priority="-1" shape="231.05,9.82 237.56,14.06 244.14,15.14 275.69,13.41 280.93,14.16 284.22,16.49 288.10,18.99">
        <lane id="119873085_1901583832_25038522_0" index="0" speed="18.06" length="11.11" shape="277.29,8.79 282.76,9.57 286.91,12.51 287.34,12.79"/>
        <lane id="119873085_1901583832_25038522_1" index="1" speed="18.06" length="11.11" shape="275.46,11.82 275.76,11.80 281.54,12.63 285.12,15.16 285.60,15.48"/>
    </edge>
    <edge id="220553570_-106093_1587555231" from="-106093" to="1587555231" priority="-1">
        <lane id="220553570_-106093_1587555231_0" index="0" speed="16.67" length="178.87" shape="111.20,267.01 289.85,258.14"/>
        <lane id="220553570_-106093_1587555231_1" index="1" speed="16.67" length="178.87" shape="111.36,270.21 290.01,261.33"/>
        <lane id="220553570_-106093_1587555231_2" index="2" speed="16.67" length="178.87" shape="111.52,273.40 290.17,264.53"/>
    </edge>
    <edge id="220553570_-116141_1587555228" from="-116141" to="1587555228" priority="-1">
        <lane id="220553570_-116141_1587555228_0" index="0" speed="16.67" length="7.59" shape="77.24,269.03 84.81,268.52"/>
        <lane id="220553570_-116141_1587555228_1" index="1" speed="16.67" length="7.59" shape="77.46,272.22 85.03,271.71"/>
        <lane id="220553570_-116141_1587555228_2" index="2" speed="16.67" length="7.59" shape="77.67,275.41 85.24,274.90"/>
    </edge>
    <edge id="220553570_1587555228_-106093" from="1587555228" to="-106093" priority="-1">
        <lane id="220553570_1587555228_-106093_0" index="0" speed="16.67" length="11.31" shape="99.61,267.59 110.90,267.03"/>
        <lane id="220553570_1587555228_-106093_1" index="1" speed="16.67" length="11.31" shape="99.77,270.79 111.06,270.22"/>
        <lane id="220553570_1587555228_-106093_2" index="2" speed="16.67" length="11.31" shape="99.93,273.98 111.22,273.42"/>
    </edge>
    <edge id="220553570_1587555231_1587555241" from="1587555231" to="1587555241" priority="-1">
        <lane id="220553570_1587555231_1587555241_0" index="0" speed="16.67" length="15.43" shape="290.09,258.13 305.49,257.12"/>
        <lane id="220553570_1587555231_1587555241_1" index="1" speed="16.67" length="15.43" shape="290.30,261.32 305.69,260.32"/>
        <lane id="220553570_1587555231_1587555241_2" index="2" speed="16.67" length="15.43" shape="290.51,264.51 305.90,263.51"/>
    </edge>
    <edge id="220553570_1587555241_1587555243" from="1587555241" to="1587555243" priority="-1">
        <lane id="220553570_1587555241_1587555243_0" index="0" speed="16.67" length="6.86" shape="319.87,256.07 326.70,255.55"/>
        <lane id="220553570_1587555241_1587555243_1" index="1" speed="16.67" length="6.86" shape="320.11,259.26 326.95,258.74"/>
        <lane id="220553570_1587555241_1587555243_2" index="2" speed="16.67" length="6.86" shape="320.35,262.46 327.19,261.94"/>
    </edge>
    <edge id="220553570_1587555243_25038509" from="1587555243" to="25038509" priority="-1">
        <lane id="220553570_1587555243_25038509_0" index="0" speed="16.67" length="65.32" shape="327.01,255.53 392.16,250.82"/>
        <lane id="220553570_1587555243_25038509_1" index="1" speed="16.67" length="65.32" shape="327.24,258.72 392.39,254.01"/>
        <lane id="220553570_1587555243_25038509_2" index="2" speed="16.67" length="65.32" shape="327.47,261.91 392.62,257.20"/>
    </edge>
    <edge id="220553570_25038596_-116141" from="25038596" to="-116141" priority="-1">
        <lane id="220553570_25038596_-116141_0" index="0" speed="16.67" length="56.11" shape="20.96,272.84 76.94,269.05"/>
        <lane id="220553570_25038596_-116141_1" index="1" speed="16.67" length="56.11" shape="21.18,276.03 77.16,272.24"/>
        <lane id="220553570_25038596_-116141_2" index="2" speed="16.67" length="56.11" shape="21.39,279.22 77.37,275.43"/>
    </edge>
    <edge id="328458674_-106187_25038515" from="-106187" to="25038515" priority="-1">
        <lane id="328458674_-106187_25038515_0" index="0" speed="16.67" length="14.31" shape="103.83,167.05 89.56,168.07"/>
        <lane id="328458674_-106187_25038515_1" index="1" speed="16.67" length="14.31" shape="103.60,163.86 89.33,164.88"/>
        <lane id="328458674_-106187_25038515_2" index="2" speed="16.67" length="14.31" shape="103.37,160.67 89.11,161.69"/>
    </edge>
    <edge id="328458674_1587555298_25038516" from="1587555298" to="25038516" priority="-1">
        <lane id="328458674_1587555298_25038516_0" index="0" speed="16.67" length="3.20" shape="315.78,151.14 312.60,151.53"/>
        <lane id="328458674_1587555298_25038516_1" index="1" speed="16.67" length="3.20" shape="315.38,147.96 312.20,148.36"/>
        <lane id="328458674_1587555298_25038516_2" index="2" speed="16.67" length="3.20" shape="314.99,144.79 311.81,145.18"/>
    </edge>
    <edge id="328458674_25038515_25038599" from="25038515" to="25038599" priority="-1">
        <lane id="328458674_25038515_25038599_0" index="0" speed="16.67" length="62.44" shape="75.17,169.19 12.93,174.15"/>
        <lane id="328458674_25038515_25038599_1" index="1" speed="16.67" length="62.44" shape="74.91,166.00 12.67,170.96"/>
        <lane id="328458674_25038515_25038599_2" index="2" speed="16.67" length="62.44" shape="74.66,162.81 12.42,167.77"/>
    </edge>
    <edge id="328458674_25038516_-106187" from="25038516" to="-106187" priority="-1">
        <lane id="328458674_25038516_-106187_0" index="0" speed="16.67" length="194.94" shape="298.27,153.11 103.83,167.05"/>
        <lane id="328458674_25038516_-106187_1" index="1" speed="16.67" length="194.94" shape="298.05,149.92 103.60,163.86"/>
        <lane id="328458674_25038516_-106187_2" index="2" speed="16.67" length="194.94" shape="297.82,146.73 103.37,160.67"/>
    </edge>
    <edge id="328458674_25038517_1587555298" from="25038517" to="1587555298" priority="-1">
        <lane id="328458674_25038517_1587555298_0" index="0" speed="16.67" length="72.06" shape="387.89,145.25 316.06,151.11"/>
        <lane id="328458674_25038517_1587555298_1" index="1" speed="16.67" length="72.06" shape="387.63,142.06 315.80,147.92"/>
        <lane id="328458674_25038517_1587555298_2" index="2" speed="16.67" length="72.06" shape="387.37,138.87 315.54,144.73"/>
    </edge>
    <edge id="370164915_2331227907_25038521" from="2331227907" to="25038521" priority="-1">
        <lane id="370164915_2331227907_25038521_0" index="0" speed="19.44" length="12.48" shape="91.52,40.15 79.08,41.07"/>
        <lane id="370164915_2331227907_25038521_1" index="1" speed="19.44" length="12.48" shape="91.29,36.96 78.84,37.87"/>
        <lane id="370164915_2331227907_25038521_2" index="2" speed="19.44" length="12.48" shape="91.05,33.77 78.61,34.68"/>
    </edge>
    <edge id="370164915_25038522_2331227907" from="25038522" to="2331227907" priority="-1">
        <lane id="370164915_25038522_2331227907_0" index="0" speed="19.44" length="193.27" shape="284.64,27.24 91.80,40.13"/>
        <lane id="370164915_25038522_2331227907_1" index="1" speed="19.44" length="193.27" shape="284.43,24.05 91.58,36.94"/>
        <lane id="370164915_25038522_2331227907_2" index="2" speed="19.44" length="193.27" shape="284.22,20.85 91.37,33.75"/>
    </edge>
    <edge id="370164917_2331227949_25038522" from="2331227949" to="25038522" priority="-1">
        <lane id="370164917_2331227949_25038522_0" index="0" speed="19.44" length="3.59" shape="306.81,25.50 303.23,25.79"/>
        <lane id="370164917_2331227949_25038522_1" index="1" speed="19.44" length="3.59" shape="306.55,22.31 302.97,22.60"/>
        <lane id="370164917_2331227949_25038522_2" index="2" speed="19.44" length="3.59" shape="306.29,19.12 302.71,19.41"/>
    </edge>
    <edge id="370164917_25038523_2331227949" from="25038523" to="2331227949" priority="-1">
        <lane id="370164917_25038523_2331227949_0" index="0" speed="19.44" length="72.80" shape="379.69,21.01 307.03,25.48"/>
        <lane id="370164917_25038523_2331227949_1" index="1" speed="19.44" length="72.80" shape="379.49,17.82 306.83,22.29"/>
        <lane id="370164917_25038523_2331227949_2" index="2" speed="19.44" length="72.80" shape="379.30,14.63 306.64,19.10"/>
    </edge>
    <edge id="370164918_25038521_25038604" from="25038521" to="25038604" priority="-1">
        <lane id="370164918_25038521_25038604_0" index="0" speed="19.44" length="63.50" shape="64.40,42.21 1.09,47.23"/>
        <lane id="370164918_25038521_25038604_1" index="1" speed="19.44" length="63.50" shape="64.14,39.02 0.84,44.04"/>
        <lane id="370164918_25038521_25038604_2" index="2" speed="19.44" length="63.50" shape="63.89,35.83 0.59,40.85"/>
    </edge>
    <edge id="370164933_25038521_1345381151" from="25038521" to="1345381151" priority="-1" shape="74.50,33.38 75.81,28.32 79.66,22.57 84.00,19.59">
        <lane id="370164933_25038521_1345381151_0" index="0" speed="8.33" length="4.57" shape="70.86,28.30 71.37,26.33 73.42,23.26"/>
        <lane id="370164933_25038521_1345381151_1" index="1" speed="8.33" length="4.57" shape="73.95,29.11 74.33,27.66 75.40,26.06"/>
    </edge>
    <edge id="388808400_1345381151_1901583832" from="1345381151" to="1901583832" priority="-1">
        <lane id="388808400_1345381151_1901583832_0" index="0" speed="19.44" length="144.37" shape="84.97,11.51 229.02,1.94"/>
        <lane id="388808400_1345381151_1901583832_1" index="1" speed="19.44" length="144.37" shape="85.18,14.70 229.24,5.13"/>
        <lane id="388808400_1345381151_1901583832_2" index="2" speed="19.44" length="144.37" shape="85.39,17.89 229.45,8.32"/>
    </edge>
    <edge id="388808400_1901583832_2331228011" from="1901583832" to="2331228011" priority="-1">
        <lane id="388808400_1901583832_2331228011_0" index="0" speed="19.44" length="26.77" shape="277.72,-0.99 304.43,-2.59"/>
        <lane id="388808400_1901583832_2331228011_1" index="1" speed="19.44" length="26.77" shape="277.91,2.21 304.63,0.61"/>
        <lane id="388808400_1901583832_2331228011_2" index="2" speed="19.44" length="26.77" shape="278.10,5.40 304.82,3.80"/>
    </edge>
    <edge id="388808400_2296638089_2331227955" from="2296638089" to="2331227955" priority="-1">
        <lane id="388808400_2296638089_2331227955_0" index="0" speed="19.44" length="60.44" shape="-0.60,18.40 59.67,13.88"/>
        <lane id="388808400_2296638089_2331227955_1" index="1" speed="19.44" length="60.44" shape="-0.36,21.59 59.91,17.07"/>
        <lane id="388808400_2296638089_2331227955_2" index="2" speed="19.44" length="60.44" shape="-0.12,24.78 60.15,20.26"/>
    </edge>
    <edge id="388808400_2331227955_1345381151" from="2331227955" to="1345381151" priority="-1">
        <lane id="388808400_2331227955_1345381151_0" index="0" speed="19.44" length="11.18" shape="59.89,13.86 71.01,12.79"/>
        <lane id="388808400_2331227955_1345381151_1" index="1" speed="19.44" length="11.18" shape="60.19,17.04 71.32,15.98"/>
        <lane id="388808400_2331227955_1345381151_2" index="2" speed="19.44" length="11.18" shape="60.50,20.23 71.62,19.17"/>
    </edge>
    <edge id="388808400_2331228011_1587555440" from="2331228011" to="1587555440" priority="-1">
        <lane id="388808400_2331228011_1587555440_0" index="0" speed="19.44" length="73.25" shape="304.68,-2.60 377.73,-7.98"/>
        <lane id="388808400_2331228011_1587555440_1" index="1" speed="19.44" length="73.25" shape="304.92,0.59 377.97,-4.79"/>
        <lane id="388808400_2331228011_1587555440_2" index="2" speed="19.44" length="73.25" shape="305.15,3.78 378.20,-1.60"/>
    </edge>
    <edge id="4217293_1587555227_1587555142" from="1587555227" to="1587555142" priority="-1">