<edges>
	<edge id="4217293_1587555241_1587555227" from="1587555241" to="1587555227" numLanes="2" shape="683998.77,7457100.87,0.00 683999.82,7457115.01,0.00" speed="8.33" />
	<edge id="220553570_-106093_1587555231" from="-106093" to="1587555231" numLanes="3" shape="683800.13,7457111.04,0.00 683979.11,7457102.15,0.00" speed="16.67" />
	<edge id="4217297_1587555132_-106091" from="1587555132" to="-106091" numLanes="2" shape="683789.09,7457174.13,0.00 683786.11,7457131.84,0.00" speed="8.33" />
	<edge id="388808400_2296638089_2331227955" from="2296638089" to="2331227955" numLanes="3" shape="683688.68,7456862.41,0.00 683749.14,7456857.87,0.00" speed="19.44" />
	<edge id="388808400_1345381151_1901583832" from="1345381151" to="1901583832" numLanes="3" shape="683772.68,7456855.62,0.00 683919.73,7456845.85,0.00" speed="19.44" />
	<edge id="4217293_25038516_1587555254" from="25038516" to="1587555254" numLanes="2" shape="683990.17,7456980.89,0.00 683997.55,7457084.55,0.00" speed="8.33" />
	<edge id="370164915_2331227907_25038521" from="2331227907" to="25038521" numLanes="3" shape="683779.78,7456868.19,0.00 683763.18,7456869.41,0.00" speed="19.44" />
	<edge id="4217297_25038515_3738891767" from="25038515" to="3738891767" numLanes="2" shape="683773.51,7456996.42,0.00 683764.49,7456893.75,0.00" speed="8.33" />
	<edge id="4217293_1587555254_1587555241" from="1587555254" to="1587555241" numLanes="2" shape="683997.55,7457084.55,0.00 683998.77,7457100.87,0.00" speed="8.33" />
	<edge id="388808400_2331227955_1345381151" from="2331227955" to="1345381151" numLanes="3" shape="683749.14,7456857.87,0.00 683772.68,7456855.62,0.00" speed="19.44" />
	<edge id="328458674_-106187_25038515" from="-106187" to="25038515" numLanes="3" shape="683791.94,7456995.10,0.00 683773.51,7456996.42,0.00" speed="16.67" />
	<edge id="4217293_25038522_1587555304" from="25038522" to="1587555304" numLanes="2" shape="683976.78,7456855.02,0.00 683980.48,7456863.09,0.00 683982.02,7456875.72,0.00 683988.81,7456965.18,0.00" speed="8.33" />
	<edge id="328458674_25038515_25038599" from="25038515" to="25038599" numLanes="3" shape="683773.51,7456996.42,0.00 683700.97,7457002.21,0.00" speed="16.67" />
	<edge id="4217297_3738891767_25038521" from="3738891767" to="25038521" numLanes="2" shape="683764.49,7456893.75,0.00 683763.18,7456869.41,0.00" speed="8.33" />
	<edge id="370164917_25038523_2331227949" from="25038523" to="2331227949" numLanes="3" shape="684067.88,7456849.06,0.00 683995.03,7456853.54,0.00" speed="19.44" />
	<edge id="370164915_25038522_2331227907" from="25038522" to="2331227907" numLanes="3" shape="683976.78,7456855.02,0.00 683779.78,7456868.19,0.00" speed="19.44" />
	<edge id="4217297_-106091_1587555228" from="-106091" to="1587555228" numLanes="2" shape="683786.11,7457131.84,0.00 683784.69,7457111.81,0.00" speed="8.33" />
	<edge id="370164933_25038521_1345381151" from="25038521" to="1345381151" numLanes="2" shape="683763.18,7456869.41,0.00 683764.49,7456864.35,0.00 683768.34,7456858.60,0.00 683772.68,7456855.62,0.00" speed="8.33" />
	<edge id="220553570_1587555231_1587555241" from="1587555231" to="1587555241" numLanes="3" shape="683979.11,7457102.15,0.00 683998.77,7457100.87,0.00" speed="16.67" />
	<edge id="220553570_1587555241_1587555243" from="1587555241" to="1587555243" numLanes="3" shape="683998.77,7457100.87,0.00 684016.13,7457099.55,0.00" speed="16.67" />
	<edge id="4217297_-106185_25038515" from="-106185" to="25038515" numLanes="2" shape="683774.86,7457010.40,0.00 683773.51,7456996.42,0.00" speed="8.33" />
	<edge id="328458674_1587555298_25038516" from="1587555298" to="25038516" numLanes="3" shape="684003.78,7456979.19,0.00 683990.17,7456980.89,0.00" speed="16.67" />
	<edge id="119873085_1901583832_25038522" from="1901583832" to="25038522" numLanes="2" shape="683919.73,7456845.85,0.00 683926.24,7456850.09,0.00 683932.82,7456851.17,0.00 683964.37,7456849.44,0.00 683969.61,7456850.19,0.00 683972.90,7456852.52,0.00 683976.78,7456855.02,0.00" speed="18.06" />
	<edge id="370164917_2331227949_25038522" from="2331227949" to="25038522" numLanes="3" shape="683995.03,7456853.54,0.00 683976.78,7456855.02,0.00" speed="19.44" />
	<edge id="4217297_-106095_-106185" from="-106095" to="-106185" numLanes="2" shape="683783.12,7457095.58,0.00 683774.86,7457010.40,0.00" speed="8.33" />
	<edge id="220553570_1587555243_25038509" from="1587555243" to="25038509" numLanes="3" shape="684016.13,7457099.55,0.00 684081.42,7457094.83,0.00" speed="16.67" />
	<edge id="328458674_25038517_1587555298" from="25038517" to="1587555298" numLanes="3" shape="684075.92,7456973.31,0.00 684003.78,7456979.19,0.00" speed="16.67" />
	<edge id="220553570_1587555228_-106093" from="1587555228" to="-106093" numLanes="3" shape="683784.69,7457111.81,0.00 683800.13,7457111.04,0.00" speed="16.67" />
	<edge id="4217293_1587555227_1587555142" from="1587555227" to="1587555142" numLanes="2" shape="683999.82,7457115.01,0.00 684006.76,7457163.12,0.00" speed="8.33" />
	<edge id="4217297_1587555228_-106095" from="1587555228" to="-106095" numLanes="2" shape="683784.69,7457111.81,0.00 683783.12,7457095.58,0.00" speed="8.33" />
	<edge id="388808400_1901583832_2331228011" from="1901583832" to="2331228011" numLanes="3" shape="683919.73,7456845.85,0.00 683993.77,7456841.42,0.00" speed="19.44" />
	<edge id="220553570_-116141_1587555228" from="-116141" to="1587555228" numLanes="3" shape="683766.31,7457113.05,0.00 683784.69,7457111.81,0.00" speed="16.67" />
	<edge id="4217293_1587555304_25038516" from="1587555304" to="25038516" numLanes="2" shape="683988.81,7456965.18,0.00 683990.17,7456980.89,0.00" speed="8.33" />
	<edge id="388808400_2331228011_1587555440" from="2331228011" to="1587555440" numLanes="3" shape="683993.77,7456841.42,0.00 684067.00,7456836.03,0.00" speed="19.44" />
	<edge id="328458674_25038516_-106187" from="25038516" to="-106187" numLanes="3" shape="683990.17,7456980.89,0.00 683791.94,7456995.10,0.00" speed="16.67" />
	<edge id="220553570_25038596_-116141" from="25038596" to="-116141" numLanes="3" shape="683710.18,7457116.85,0.00 683766.31,7457113.05,0.00" speed="16.67" />
	<edge id="370164918_25038521_25038604" from="25038521" to="25038604" numLanes="3" shape="683763.18,7456869.41,0.00 683689.14,7456875.29,0.00" speed="19.44" />
</edges>
